* File: adder.pex.netlist.pex
* Created: Fri Dec  9 14:04:08 2016
* Program "Calibre xRC"
* Version "v2011.3_18.12"
* Nominal Temperature: 27C
* Circuit Temperature: 27C
* 
.subckt PM_ADDER_A_15 2 6 10 14 18 22 25 26 27 28 29 31 38 40 42 57 67 68
c82 68 0 0.0345263f
c83 57 0 0.00390024f
c84 42 0 0.00388288f
c85 40 0 0.021754f
c86 38 0 0.00725822f
c87 31 0 0.00686793f
c88 29 0 0.0508047f
c89 28 0 0.00142177f
c90 27 0 0.00766075f
c91 26 0 0.00142177f
c92 25 0 0.00765472f
c93 22 0 0.0181707f
c94 18 0 0.0178931f
c95 14 0 0.0383095f
c96 10 0 0.0171604f
c97 6 0 0.0213687f
c98 2 0 0.0341013f
r99 67 68 4.37
r100 64 67 0.823333
r101 57 60 4.7167
r102 57 59 4.8207
r103 45 68 76.9138
r104 42 57 67.1147
r105 40 42 76.9138
r106 40 45 2.83333
r107 38 53 67.1147
r108 36 38 76.9138
r109 34 36 4.08333
r110 34 64 76.9138
r111 31 49 67.1147
r112 29 31 76.9138
r113 29 34 2.33333
r114 27 53 9.1
r115 27 28 0.043368
r116 25 49 9.1
r117 25 26 0.043368
r118 22 60 50.7
r119 18 59 46.8
r120 13 28 4.56151
r121 13 14 74.1
r122 9 28 4.56151
r123 9 10 23.4
r124 5 26 4.56151
r125 5 6 27.3
r126 1 26 4.56151
r127 1 2 70.2
.ends

.subckt PM_ADDER_A_14 2 6 10 14 18 22 25 26 27 28 29 31 38 40 42 57 67 68
c81 68 0 0.0356321f
c82 57 0 0.00390024f
c83 42 0 0.00388288f
c84 40 0 0.021754f
c85 38 0 0.00725822f
c86 31 0 0.00686793f
c87 29 0 0.0508047f
c88 28 0 0.00142177f
c89 27 0 0.00766075f
c90 26 0 0.00142177f
c91 25 0 0.00765472f
c92 22 0 0.0181707f
c93 18 0 0.0178931f
c94 14 0 0.0383095f
c95 10 0 0.0171604f
c96 6 0 0.0213687f
c97 2 0 0.0341013f
r98 67 68 4.49667
r99 64 67 0.696667
r100 57 60 4.7687
r101 57 59 4.7687
r102 45 68 76.9138
r103 42 57 67.1147
r104 40 42 76.9138
r105 40 45 2.83333
r106 38 53 67.1147
r107 36 38 76.9138
r108 34 36 4.08333
r109 34 64 76.9138
r110 31 49 67.1147
r111 29 31 76.9138
r112 29 34 2.33333
r113 27 53 9.1
r114 27 28 0.043368
r115 25 49 9.1
r116 25 26 0.043368
r117 22 60 50.7
r118 18 59 46.8
r119 13 28 4.56151
r120 13 14 74.1
r121 9 28 4.56151
r122 9 10 23.4
r123 5 26 4.56151
r124 5 6 27.3
r125 1 26 4.56151
r126 1 2 70.2
.ends

.subckt PM_ADDER_A_13 2 6 10 14 18 22 25 26 27 28 29 31 38 40 42 57 67 68
c81 68 0 0.0356321f
c82 57 0 0.00390024f
c83 42 0 0.00388288f
c84 40 0 0.021754f
c85 38 0 0.00725822f
c86 31 0 0.00686793f
c87 29 0 0.0508047f
c88 28 0 0.00142177f
c89 27 0 0.00766075f
c90 26 0 0.00142177f
c91 25 0 0.00765472f
c92 22 0 0.0181707f
c93 18 0 0.0178931f
c94 14 0 0.0383095f
c95 10 0 0.0171604f
c96 6 0 0.0213687f
c97 2 0 0.0341013f
r98 67 68 4.49667
r99 64 67 0.696667
r100 57 60 4.7687
r101 57 59 4.7687
r102 45 68 76.9138
r103 42 57 67.1147
r104 40 42 76.9138
r105 40 45 2.83333
r106 38 53 67.1147
r107 36 38 76.9138
r108 34 36 4.08333
r109 34 64 76.9138
r110 31 49 67.1147
r111 29 31 76.9138
r112 29 34 2.33333
r113 27 53 9.1
r114 27 28 0.043368
r115 25 49 9.1
r116 25 26 0.043368
r117 22 60 50.7
r118 18 59 46.8
r119 13 28 4.56151
r120 13 14 74.1
r121 9 28 4.56151
r122 9 10 23.4
r123 5 26 4.56151
r124 5 6 27.3
r125 1 26 4.56151
r126 1 2 70.2
.ends

.subckt PM_ADDER_A_12 2 6 10 14 18 22 25 26 27 28 29 31 38 40 42 57 67 68
c81 68 0 0.0356321f
c82 57 0 0.00390024f
c83 42 0 0.00388288f
c84 40 0 0.021754f
c85 38 0 0.00725822f
c86 31 0 0.00686793f
c87 29 0 0.0508047f
c88 28 0 0.00142177f
c89 27 0 0.00766075f
c90 26 0 0.00142177f
c91 25 0 0.00765472f
c92 22 0 0.0181707f
c93 18 0 0.0178931f
c94 14 0 0.0383095f
c95 10 0 0.0171604f
c96 6 0 0.0213687f
c97 2 0 0.0341013f
r98 67 68 4.62333
r99 64 67 0.57
r100 57 60 4.7687
r101 57 59 4.7687
r102 45 68 76.9138
r103 42 57 67.1147
r104 40 42 76.9138
r105 40 45 2.83333
r106 38 53 67.1147
r107 36 38 76.9138
r108 34 36 4.08333
r109 34 64 76.9138
r110 31 49 67.1147
r111 29 31 76.9138
r112 29 34 2.33333
r113 27 53 9.1
r114 27 28 0.043368
r115 25 49 9.1
r116 25 26 0.043368
r117 22 60 50.7
r118 18 59 46.8
r119 13 28 4.56151
r120 13 14 74.1
r121 9 28 4.56151
r122 9 10 23.4
r123 5 26 4.56151
r124 5 6 27.3
r125 1 26 4.56151
r126 1 2 70.2
.ends

.subckt PM_ADDER_A_11 2 6 10 14 18 22 25 26 27 28 29 31 38 40 42 57 67 68
c81 68 0 0.0356321f
c82 57 0 0.00390024f
c83 42 0 0.00388288f
c84 40 0 0.021754f
c85 38 0 0.00725822f
c86 31 0 0.00686793f
c87 29 0 0.0508047f
c88 28 0 0.00142177f
c89 27 0 0.00766075f
c90 26 0 0.00142177f
c91 25 0 0.00765472f
c92 22 0 0.0181707f
c93 18 0 0.0178931f
c94 14 0 0.0383095f
c95 10 0 0.0171604f
c96 6 0 0.0213687f
c97 2 0 0.0341013f
r98 67 68 4.49667
r99 64 67 0.696667
r100 57 60 4.7687
r101 57 59 4.7687
r102 45 68 76.9138
r103 42 57 67.1147
r104 40 42 76.9138
r105 40 45 2.83333
r106 38 53 67.1147
r107 36 38 76.9138
r108 34 36 4.08333
r109 34 64 76.9138
r110 31 49 67.1147
r111 29 31 76.9138
r112 29 34 2.33333
r113 27 53 9.1
r114 27 28 0.043368
r115 25 49 9.1
r116 25 26 0.043368
r117 22 60 50.7
r118 18 59 46.8
r119 13 28 4.56151
r120 13 14 74.1
r121 9 28 4.56151
r122 9 10 23.4
r123 5 26 4.56151
r124 5 6 27.3
r125 1 26 4.56151
r126 1 2 70.2
.ends

.subckt PM_ADDER_A_10 2 6 10 14 18 22 25 26 27 28 29 31 38 40 42 57 67 68
c81 68 0 0.0356321f
c82 57 0 0.00390024f
c83 42 0 0.00388288f
c84 40 0 0.021754f
c85 38 0 0.00725822f
c86 31 0 0.00686793f
c87 29 0 0.0508047f
c88 28 0 0.00142177f
c89 27 0 0.00766075f
c90 26 0 0.00142177f
c91 25 0 0.00765472f
c92 22 0 0.0181707f
c93 18 0 0.0178931f
c94 14 0 0.0383095f
c95 10 0 0.0171604f
c96 6 0 0.0213687f
c97 2 0 0.0341013f
r98 67 68 4.49667
r99 64 67 0.696667
r100 57 60 4.7687
r101 57 59 4.7687
r102 45 68 76.9138
r103 42 57 67.1147
r104 40 42 76.9138
r105 40 45 2.83333
r106 38 53 67.1147
r107 36 38 76.9138
r108 34 36 4.08333
r109 34 64 76.9138
r110 31 49 67.1147
r111 29 31 76.9138
r112 29 34 2.33333
r113 27 53 9.1
r114 27 28 0.043368
r115 25 49 9.1
r116 25 26 0.043368
r117 22 60 50.7
r118 18 59 46.8
r119 13 28 4.56151
r120 13 14 74.1
r121 9 28 4.56151
r122 9 10 23.4
r123 5 26 4.56151
r124 5 6 27.3
r125 1 26 4.56151
r126 1 2 70.2
.ends

.subckt PM_ADDER_A_9 2 6 10 14 18 22 25 26 27 28 29 31 38 40 42 57 67 68
c81 68 0 0.0356321f
c82 57 0 0.00390024f
c83 42 0 0.00388288f
c84 40 0 0.021754f
c85 38 0 0.00725822f
c86 31 0 0.00686793f
c87 29 0 0.0508047f
c88 28 0 0.00142177f
c89 27 0 0.00766075f
c90 26 0 0.00142177f
c91 25 0 0.00765472f
c92 22 0 0.0181707f
c93 18 0 0.0178931f
c94 14 0 0.0383095f
c95 10 0 0.0171604f
c96 6 0 0.0213687f
c97 2 0 0.0341013f
r98 67 68 4.62333
r99 64 67 0.57
r100 57 60 4.7687
r101 57 59 4.7687
r102 45 68 76.9138
r103 42 57 67.1147
r104 40 42 76.9138
r105 40 45 2.83333
r106 38 53 67.1147
r107 36 38 76.9138
r108 34 36 4.08333
r109 34 64 76.9138
r110 31 49 67.1147
r111 29 31 76.9138
r112 29 34 2.33333
r113 27 53 9.1
r114 27 28 0.043368
r115 25 49 9.1
r116 25 26 0.043368
r117 22 60 50.7
r118 18 59 46.8
r119 13 28 4.56151
r120 13 14 74.1
r121 9 28 4.56151
r122 9 10 23.4
r123 5 26 4.56151
r124 5 6 27.3
r125 1 26 4.56151
r126 1 2 70.2
.ends

.subckt PM_ADDER_A_8 2 6 10 14 18 22 25 26 27 28 29 31 38 40 42 57 67 68
c81 68 0 0.0356321f
c82 57 0 0.00390024f
c83 42 0 0.00388288f
c84 40 0 0.021754f
c85 38 0 0.00725822f
c86 31 0 0.00686793f
c87 29 0 0.0508047f
c88 28 0 0.00142177f
c89 27 0 0.00766075f
c90 26 0 0.00142177f
c91 25 0 0.00765472f
c92 22 0 0.0181707f
c93 18 0 0.0178931f
c94 14 0 0.0383095f
c95 10 0 0.0171604f
c96 6 0 0.0213687f
c97 2 0 0.0341013f
r98 67 68 4.49667
r99 64 67 0.696667
r100 57 60 4.7687
r101 57 59 4.7687
r102 45 68 76.9138
r103 42 57 67.1147
r104 40 42 76.9138
r105 40 45 2.83333
r106 38 53 67.1147
r107 36 38 76.9138
r108 34 36 4.08333
r109 34 64 76.9138
r110 31 49 67.1147
r111 29 31 76.9138
r112 29 34 2.33333
r113 27 53 9.1
r114 27 28 0.043368
r115 25 49 9.1
r116 25 26 0.043368
r117 22 60 50.7
r118 18 59 46.8
r119 13 28 4.56151
r120 13 14 74.1
r121 9 28 4.56151
r122 9 10 23.4
r123 5 26 4.56151
r124 5 6 27.3
r125 1 26 4.56151
r126 1 2 70.2
.ends

.subckt PM_ADDER_A_7 2 6 10 14 18 22 25 26 27 28 29 31 38 40 42 57 67 68
c81 68 0 0.0356321f
c82 57 0 0.00390024f
c83 42 0 0.00388288f
c84 40 0 0.021754f
c85 38 0 0.00725822f
c86 31 0 0.00686793f
c87 29 0 0.0508047f
c88 28 0 0.00142177f
c89 27 0 0.00766075f
c90 26 0 0.00142177f
c91 25 0 0.00765472f
c92 22 0 0.0181707f
c93 18 0 0.0178931f
c94 14 0 0.0383095f
c95 10 0 0.0171604f
c96 6 0 0.0213687f
c97 2 0 0.0341013f
r98 67 68 4.49667
r99 64 67 0.696667
r100 57 60 4.7687
r101 57 59 4.7687
r102 45 68 76.9138
r103 42 57 67.1147
r104 40 42 76.9138
r105 40 45 2.83333
r106 38 53 67.1147
r107 36 38 76.9138
r108 34 36 4.08333
r109 34 64 76.9138
r110 31 49 67.1147
r111 29 31 76.9138
r112 29 34 2.33333
r113 27 53 9.1
r114 27 28 0.043368
r115 25 49 9.1
r116 25 26 0.043368
r117 22 60 50.7
r118 18 59 46.8
r119 13 28 4.56151
r120 13 14 74.1
r121 9 28 4.56151
r122 9 10 23.4
r123 5 26 4.56151
r124 5 6 27.3
r125 1 26 4.56151
r126 1 2 70.2
.ends

.subckt PM_ADDER_A_6 2 6 10 14 18 22 25 26 27 28 29 31 38 40 42 57 67 68
c81 68 0 0.0356321f
c82 57 0 0.00390024f
c83 42 0 0.00388288f
c84 40 0 0.021754f
c85 38 0 0.00725822f
c86 31 0 0.00686793f
c87 29 0 0.0508047f
c88 28 0 0.00142177f
c89 27 0 0.00766075f
c90 26 0 0.00142177f
c91 25 0 0.00765472f
c92 22 0 0.0181707f
c93 18 0 0.0178931f
c94 14 0 0.0383095f
c95 10 0 0.0171604f
c96 6 0 0.0213687f
c97 2 0 0.0341013f
r98 67 68 4.62333
r99 64 67 0.57
r100 57 60 4.7687
r101 57 59 4.7687
r102 45 68 76.9138
r103 42 57 67.1147
r104 40 42 76.9138
r105 40 45 2.83333
r106 38 53 67.1147
r107 36 38 76.9138
r108 34 36 4.08333
r109 34 64 76.9138
r110 31 49 67.1147
r111 29 31 76.9138
r112 29 34 2.33333
r113 27 53 9.1
r114 27 28 0.043368
r115 25 49 9.1
r116 25 26 0.043368
r117 22 60 50.7
r118 18 59 46.8
r119 13 28 4.56151
r120 13 14 74.1
r121 9 28 4.56151
r122 9 10 23.4
r123 5 26 4.56151
r124 5 6 27.3
r125 1 26 4.56151
r126 1 2 70.2
.ends

.subckt PM_ADDER_A_5 2 6 10 14 18 22 25 26 27 28 29 31 38 40 42 57 67 68
c81 68 0 0.0356321f
c82 57 0 0.00390024f
c83 42 0 0.00388288f
c84 40 0 0.021754f
c85 38 0 0.00725822f
c86 31 0 0.00686793f
c87 29 0 0.0508047f
c88 28 0 0.00142177f
c89 27 0 0.00766075f
c90 26 0 0.00142177f
c91 25 0 0.00765472f
c92 22 0 0.0181707f
c93 18 0 0.0178931f
c94 14 0 0.0383095f
c95 10 0 0.0171604f
c96 6 0 0.0213687f
c97 2 0 0.0341013f
r98 67 68 4.75
r99 64 67 0.443333
r100 57 60 4.7687
r101 57 59 4.7687
r102 45 68 76.9138
r103 42 57 67.1147
r104 40 42 76.9138
r105 40 45 2.83333
r106 38 53 67.1147
r107 36 38 76.9138
r108 34 36 4.08333
r109 34 64 76.9138
r110 31 49 67.1147
r111 29 31 76.9138
r112 29 34 2.33333
r113 27 53 9.1
r114 27 28 0.043368
r115 25 49 9.1
r116 25 26 0.043368
r117 22 60 50.7
r118 18 59 46.8
r119 13 28 4.56151
r120 13 14 74.1
r121 9 28 4.56151
r122 9 10 23.4
r123 5 26 4.56151
r124 5 6 27.3
r125 1 26 4.56151
r126 1 2 70.2
.ends

.subckt PM_ADDER_A_4 2 6 10 14 18 22 25 26 27 28 29 31 38 40 42 57 67 68
c81 68 0 0.0356321f
c82 57 0 0.00390024f
c83 42 0 0.00388288f
c84 40 0 0.021754f
c85 38 0 0.00725822f
c86 31 0 0.00686793f
c87 29 0 0.0508047f
c88 28 0 0.00142177f
c89 27 0 0.00766075f
c90 26 0 0.00142177f
c91 25 0 0.00765472f
c92 22 0 0.0181707f
c93 18 0 0.0178931f
c94 14 0 0.0383095f
c95 10 0 0.0171604f
c96 6 0 0.0213687f
c97 2 0 0.0341013f
r98 67 68 4.49667
r99 64 67 0.696667
r100 57 60 4.7687
r101 57 59 4.7687
r102 45 68 76.9138
r103 42 57 67.1147
r104 40 42 76.9138
r105 40 45 2.83333
r106 38 53 67.1147
r107 36 38 76.9138
r108 34 36 4.08333
r109 34 64 76.9138
r110 31 49 67.1147
r111 29 31 76.9138
r112 29 34 2.33333
r113 27 53 9.1
r114 27 28 0.043368
r115 25 49 9.1
r116 25 26 0.043368
r117 22 60 50.7
r118 18 59 46.8
r119 13 28 4.56151
r120 13 14 74.1
r121 9 28 4.56151
r122 9 10 23.4
r123 5 26 4.56151
r124 5 6 27.3
r125 1 26 4.56151
r126 1 2 70.2
.ends

.subckt PM_ADDER_A_3 2 6 10 14 18 22 25 26 27 28 29 31 38 40 42 57 67 68
c81 68 0 0.0356321f
c82 57 0 0.00390024f
c83 42 0 0.00388288f
c84 40 0 0.021754f
c85 38 0 0.00725822f
c86 31 0 0.00686793f
c87 29 0 0.0508047f
c88 28 0 0.00142177f
c89 27 0 0.00766075f
c90 26 0 0.00142177f
c91 25 0 0.00765472f
c92 22 0 0.0181707f
c93 18 0 0.0178931f
c94 14 0 0.0383095f
c95 10 0 0.0171604f
c96 6 0 0.0213687f
c97 2 0 0.0341013f
r98 67 68 4.37
r99 64 67 0.823333
r100 57 60 4.7687
r101 57 59 4.7687
r102 45 68 76.9138
r103 42 57 67.1147
r104 40 42 76.9138
r105 40 45 2.83333
r106 38 53 67.1147
r107 36 38 76.9138
r108 34 36 4.08333
r109 34 64 76.9138
r110 31 49 67.1147
r111 29 31 76.9138
r112 29 34 2.33333
r113 27 53 9.1
r114 27 28 0.043368
r115 25 49 9.1
r116 25 26 0.043368
r117 22 60 50.7
r118 18 59 46.8
r119 13 28 4.56151
r120 13 14 74.1
r121 9 28 4.56151
r122 9 10 23.4
r123 5 26 4.56151
r124 5 6 27.3
r125 1 26 4.56151
r126 1 2 70.2
.ends

.subckt PM_ADDER_A_2 2 6 10 14 18 22 25 26 27 28 29 31 38 40 42 57 67 68
c81 68 0 0.0356321f
c82 57 0 0.00390024f
c83 42 0 0.00388288f
c84 40 0 0.021754f
c85 38 0 0.00725822f
c86 31 0 0.00686793f
c87 29 0 0.0508047f
c88 28 0 0.00142177f
c89 27 0 0.00766075f
c90 26 0 0.00142177f
c91 25 0 0.00765472f
c92 22 0 0.0181707f
c93 18 0 0.0178931f
c94 14 0 0.0383095f
c95 10 0 0.0171604f
c96 6 0 0.0213687f
c97 2 0 0.0341013f
r98 67 68 4.62333
r99 64 67 0.57
r100 57 60 4.7687
r101 57 59 4.7687
r102 45 68 76.9138
r103 42 57 67.1147
r104 40 42 76.9138
r105 40 45 2.83333
r106 38 53 67.1147
r107 36 38 76.9138
r108 34 36 4.08333
r109 34 64 76.9138
r110 31 49 67.1147
r111 29 31 76.9138
r112 29 34 2.33333
r113 27 53 9.1
r114 27 28 0.043368
r115 25 49 9.1
r116 25 26 0.043368
r117 22 60 50.7
r118 18 59 46.8
r119 13 28 4.56151
r120 13 14 74.1
r121 9 28 4.56151
r122 9 10 23.4
r123 5 26 4.56151
r124 5 6 27.3
r125 1 26 4.56151
r126 1 2 70.2
.ends

.subckt PM_ADDER_A_1 2 6 10 14 18 22 25 26 27 28 29 31 38 40 42 57 67 68
c81 68 0 0.0356321f
c82 57 0 0.00390024f
c83 42 0 0.00388288f
c84 40 0 0.021754f
c85 38 0 0.00725822f
c86 31 0 0.00686793f
c87 29 0 0.0508047f
c88 28 0 0.00142177f
c89 27 0 0.00766075f
c90 26 0 0.00142177f
c91 25 0 0.00765472f
c92 22 0 0.0181707f
c93 18 0 0.0178931f
c94 14 0 0.0383095f
c95 10 0 0.0171604f
c96 6 0 0.0213687f
c97 2 0 0.0341013f
r98 67 68 4.49667
r99 64 67 0.696667
r100 57 60 4.7687
r101 57 59 4.7687
r102 45 68 76.9138
r103 42 57 67.1147
r104 40 42 76.9138
r105 40 45 2.83333
r106 38 53 67.1147
r107 36 38 76.9138
r108 34 36 4.08333
r109 34 64 76.9138
r110 31 49 67.1147
r111 29 31 76.9138
r112 29 34 2.33333
r113 27 53 9.1
r114 27 28 0.043368
r115 25 49 9.1
r116 25 26 0.043368
r117 22 60 50.7
r118 18 59 46.8
r119 13 28 4.56151
r120 13 14 74.1
r121 9 28 4.56151
r122 9 10 23.4
r123 5 26 4.56151
r124 5 6 27.3
r125 1 26 4.56151
r126 1 2 70.2
.ends

.subckt PM_ADDER_A_0 2 6 10 14 18 22 25 26 27 28 29 31 38 40 42 57 67 68
c81 68 0 0.0356321f
c82 57 0 0.00390024f
c83 42 0 0.00388288f
c84 40 0 0.021754f
c85 38 0 0.00725822f
c86 31 0 0.00686793f
c87 29 0 0.0508047f
c88 28 0 0.00142177f
c89 27 0 0.00766075f
c90 26 0 0.00142177f
c91 25 0 0.00765472f
c92 22 0 0.0181707f
c93 18 0 0.0178931f
c94 14 0 0.0383095f
c95 10 0 0.0171604f
c96 6 0 0.0213687f
c97 2 0 0.0341013f
r98 67 68 4.62333
r99 64 67 0.57
r100 57 60 4.7687
r101 57 59 4.7687
r102 45 68 76.9138
r103 42 57 67.1147
r104 40 42 76.9138
r105 40 45 2.83333
r106 38 53 67.1147
r107 36 38 76.9138
r108 34 36 4.08333
r109 34 64 76.9138
r110 31 49 67.1147
r111 29 31 76.9138
r112 29 34 2.33333
r113 27 53 9.1
r114 27 28 0.043368
r115 25 49 9.1
r116 25 26 0.043368
r117 22 60 50.7
r118 18 59 46.8
r119 13 28 4.56151
r120 13 14 74.1
r121 9 28 4.56151
r122 9 10 23.4
r123 5 26 4.56151
r124 5 6 27.3
r125 1 26 4.56151
r126 1 2 70.2
.ends

.subckt PM_ADDER_B_15 2 6 10 14 18 22 25 27 29 31 38 40 42 59 68 69
c82 69 0 0.0427816f
c83 59 0 0.00529435f
c84 42 0 0.00493981f
c85 40 0 0.0117628f
c86 38 0 0.00412465f
c87 31 0 0.00400535f
c88 29 0 0.0490214f
c89 28 0 0.0032225f
c90 27 0 0.00543758f
c91 26 0 0.0032225f
c92 25 0 0.00540428f
c93 22 0 0.0244984f
c94 18 0 0.0238829f
c95 14 0 0.0368421f
c96 10 0 0.0171604f
c97 6 0 0.0213687f
c98 2 0 0.0317939f
r99 68 69 4.62333
r100 65 68 0.57
r101 56 59 3.9
r102 45 69 76.9138
r103 42 59 67.1147
r104 40 42 76.9138
r105 40 45 3.33333
r106 38 53 67.1147
r107 36 38 76.9138
r108 34 36 3.58333
r109 34 65 76.9138
r110 31 49 67.1147
r111 29 31 76.9138
r112 29 34 2.83333
r113 27 53 6.5
r114 27 28 0.043368
r115 25 49 6.5
r116 25 26 0.043368
r117 21 56 1.98872
r118 21 22 50.7
r119 17 56 1.98872
r120 17 18 46.8
r121 13 28 4.56151
r122 13 14 74.1
r123 9 28 4.56151
r124 9 10 23.4
r125 5 26 4.56151
r126 5 6 27.3
r127 1 26 4.56151
r128 1 2 70.2
.ends

.subckt PM_ADDER_B_14 2 6 10 14 18 22 25 27 29 31 38 40 42 59 68 69
c90 69 0 0.042675f
c91 59 0 0.00529435f
c92 42 0 0.00356256f
c93 40 0 0.0115229f
c94 38 0 0.00412465f
c95 31 0 0.00400535f
c96 29 0 0.0490214f
c97 28 0 0.0032225f
c98 27 0 0.00543758f
c99 26 0 0.0032225f
c100 25 0 0.00540428f
c101 22 0 0.0244984f
c102 18 0 0.0240283f
c103 14 0 0.0368421f
c104 10 0 0.0171604f
c105 6 0 0.0213687f
c106 2 0 0.0317939f
r107 68 69 4.24333
r108 65 68 0.95
r109 56 59 3.9
r110 45 69 76.9138
r111 42 59 67.1147
r112 40 42 76.9138
r113 40 45 3.33333
r114 38 53 67.1147
r115 36 38 76.9138
r116 34 36 3.58333
r117 34 65 76.9138
r118 31 49 67.1147
r119 29 31 76.9138
r120 29 34 2.83333
r121 27 53 6.5
r122 27 28 0.043368
r123 25 49 6.5
r124 25 26 0.043368
r125 21 56 1.98872
r126 21 22 50.7
r127 17 56 1.98872
r128 17 18 46.8
r129 13 28 4.56151
r130 13 14 74.1
r131 9 28 4.56151
r132 9 10 23.4
r133 5 26 4.56151
r134 5 6 27.3
r135 1 26 4.56151
r136 1 2 70.2
.ends

.subckt PM_ADDER_B_13 2 6 10 14 18 22 25 27 29 31 38 40 42 59 68 69
c88 69 0 0.0427816f
c89 59 0 0.00547198f
c90 42 0 0.00364342f
c91 40 0 0.0186745f
c92 38 0 0.00412465f
c93 31 0 0.00400535f
c94 29 0 0.0490214f
c95 28 0 0.0032225f
c96 27 0 0.00543758f
c97 26 0 0.0032225f
c98 25 0 0.00540428f
c99 22 0 0.0244984f
c100 18 0 0.0238829f
c101 14 0 0.0368421f
c102 10 0 0.0171604f
c103 6 0 0.0213687f
c104 2 0 0.0317939f
r105 68 69 4.24333
r106 65 68 0.95
r107 56 59 3.9
r108 45 69 76.9138
r109 42 59 67.1147
r110 40 42 76.9138
r111 40 45 3.33333
r112 38 53 67.1147
r113 36 38 76.9138
r114 34 36 3.58333
r115 34 65 76.9138
r116 31 49 67.1147
r117 29 31 76.9138
r118 29 34 2.83333
r119 27 53 6.5
r120 27 28 0.043368
r121 25 49 6.5
r122 25 26 0.043368
r123 21 56 1.98872
r124 21 22 50.7
r125 17 56 1.98872
r126 17 18 46.8
r127 13 28 4.56151
r128 13 14 74.1
r129 9 28 4.56151
r130 9 10 23.4
r131 5 26 4.56151
r132 5 6 27.3
r133 1 26 4.56151
r134 1 2 70.2
.ends

.subckt PM_ADDER_B_12 2 6 10 14 18 22 25 27 29 31 38 40 42 59 68 69
c87 69 0 0.0427816f
c88 59 0 0.00529435f
c89 42 0 0.00356256f
c90 40 0 0.0115229f
c91 38 0 0.00412465f
c92 31 0 0.00400535f
c93 29 0 0.0490214f
c94 28 0 0.0032225f
c95 27 0 0.00543758f
c96 26 0 0.0032225f
c97 25 0 0.00540428f
c98 22 0 0.0244984f
c99 18 0 0.0240283f
c100 14 0 0.0368421f
c101 10 0 0.0171604f
c102 6 0 0.0213687f
c103 2 0 0.0317939f
r104 68 69 3.99
r105 65 68 1.20333
r106 56 59 3.9
r107 45 69 76.9138
r108 42 59 67.1147
r109 40 42 76.9138
r110 40 45 3.33333
r111 38 53 67.1147
r112 36 38 76.9138
r113 34 36 3.58333
r114 34 65 76.9138
r115 31 49 67.1147
r116 29 31 76.9138
r117 29 34 2.83333
r118 27 53 6.5
r119 27 28 0.043368
r120 25 49 6.5
r121 25 26 0.043368
r122 21 56 1.98872
r123 21 22 50.7
r124 17 56 1.98872
r125 17 18 46.8
r126 13 28 4.56151
r127 13 14 74.1
r128 9 28 4.56151
r129 9 10 23.4
r130 5 26 4.56151
r131 5 6 27.3
r132 1 26 4.56151
r133 1 2 70.2
.ends

.subckt PM_ADDER_B_11 2 6 10 14 18 22 25 27 29 31 38 40 42 59 68 69
c87 69 0 0.0427816f
c88 59 0 0.00548118f
c89 42 0 0.00350511f
c90 40 0 0.0173123f
c91 38 0 0.00412465f
c92 31 0 0.00400535f
c93 29 0 0.0490214f
c94 28 0 0.0032225f
c95 27 0 0.00543758f
c96 26 0 0.0032225f
c97 25 0 0.00540428f
c98 22 0 0.0244984f
c99 18 0 0.0238829f
c100 14 0 0.0368421f
c101 10 0 0.0171604f
c102 6 0 0.0213687f
c103 2 0 0.0317939f
r104 68 69 3.99
r105 65 68 1.20333
r106 56 59 3.9
r107 45 69 76.9138
r108 42 59 67.1147
r109 40 42 76.9138
r110 40 45 3.33333
r111 38 53 67.1147
r112 36 38 76.9138
r113 34 36 3.58333
r114 34 65 76.9138
r115 31 49 67.1147
r116 29 31 76.9138
r117 29 34 2.83333
r118 27 53 6.5
r119 27 28 0.043368
r120 25 49 6.5
r121 25 26 0.043368
r122 21 56 1.98872
r123 21 22 50.7
r124 17 56 1.98872
r125 17 18 46.8
r126 13 28 4.56151
r127 13 14 74.1
r128 9 28 4.56151
r129 9 10 23.4
r130 5 26 4.56151
r131 5 6 27.3
r132 1 26 4.56151
r133 1 2 70.2
.ends

.subckt PM_ADDER_B_10 2 6 10 14 18 22 25 27 29 31 38 40 42 59 68 69
c87 69 0 0.0427816f
c88 59 0 0.00529435f
c89 42 0 0.00356256f
c90 40 0 0.0115229f
c91 38 0 0.00412465f
c92 31 0 0.00400535f
c93 29 0 0.0490214f
c94 28 0 0.0032225f
c95 27 0 0.00543758f
c96 26 0 0.0032225f
c97 25 0 0.00540428f
c98 22 0 0.0244984f
c99 18 0 0.0240283f
c100 14 0 0.0368421f
c101 10 0 0.0171604f
c102 6 0 0.0213687f
c103 2 0 0.0317939f
r104 68 69 3.99
r105 65 68 1.20333
r106 56 59 3.9
r107 45 69 76.9138
r108 42 59 67.1147
r109 40 42 76.9138
r110 40 45 3.33333
r111 38 53 67.1147
r112 36 38 76.9138
r113 34 36 3.58333
r114 34 65 76.9138
r115 31 49 67.1147
r116 29 31 76.9138
r117 29 34 2.83333
r118 27 53 6.5
r119 27 28 0.043368
r120 25 49 6.5
r121 25 26 0.043368
r122 21 56 1.98872
r123 21 22 50.7
r124 17 56 1.98872
r125 17 18 46.8
r126 13 28 4.56151
r127 13 14 74.1
r128 9 28 4.56151
r129 9 10 23.4
r130 5 26 4.56151
r131 5 6 27.3
r132 1 26 4.56151
r133 1 2 70.2
.ends

.subckt PM_ADDER_B_9 2 6 10 14 18 22 25 27 29 31 38 40 42 59 68 69
c87 69 0 0.0427816f
c88 59 0 0.00548118f
c89 42 0 0.00350511f
c90 40 0 0.0173123f
c91 38 0 0.00412465f
c92 31 0 0.00400535f
c93 29 0 0.0490214f
c94 28 0 0.0032225f
c95 27 0 0.00543758f
c96 26 0 0.0032225f
c97 25 0 0.00540428f
c98 22 0 0.0244984f
c99 18 0 0.0238829f
c100 14 0 0.0368421f
c101 10 0 0.0171604f
c102 6 0 0.0213687f
c103 2 0 0.0317939f
r104 68 69 4.11667
r105 65 68 1.07667
r106 56 59 3.9
r107 45 69 76.9138
r108 42 59 67.1147
r109 40 42 76.9138
r110 40 45 3.33333
r111 38 53 67.1147
r112 36 38 76.9138
r113 34 36 3.58333
r114 34 65 76.9138
r115 31 49 67.1147
r116 29 31 76.9138
r117 29 34 2.83333
r118 27 53 6.5
r119 27 28 0.043368
r120 25 49 6.5
r121 25 26 0.043368
r122 21 56 1.98872
r123 21 22 50.7
r124 17 56 1.98872
r125 17 18 46.8
r126 13 28 4.56151
r127 13 14 74.1
r128 9 28 4.56151
r129 9 10 23.4
r130 5 26 4.56151
r131 5 6 27.3
r132 1 26 4.56151
r133 1 2 70.2
.ends

.subckt PM_ADDER_B_8 2 6 10 14 18 22 25 27 29 31 38 40 42 59 68 69
c87 69 0 0.0427816f
c88 59 0 0.00529435f
c89 42 0 0.00356256f
c90 40 0 0.0115229f
c91 38 0 0.00412465f
c92 31 0 0.00400535f
c93 29 0 0.0490214f
c94 28 0 0.0032225f
c95 27 0 0.00543758f
c96 26 0 0.0032225f
c97 25 0 0.00540428f
c98 22 0 0.0244984f
c99 18 0 0.0240283f
c100 14 0 0.0368421f
c101 10 0 0.0171604f
c102 6 0 0.0213687f
c103 2 0 0.0317939f
r104 68 69 4.24333
r105 65 68 0.95
r106 56 59 3.9
r107 45 69 76.9138
r108 42 59 67.1147
r109 40 42 76.9138
r110 40 45 3.33333
r111 38 53 67.1147
r112 36 38 76.9138
r113 34 36 3.58333
r114 34 65 76.9138
r115 31 49 67.1147
r116 29 31 76.9138
r117 29 34 2.83333
r118 27 53 6.5
r119 27 28 0.043368
r120 25 49 6.5
r121 25 26 0.043368
r122 21 56 1.98872
r123 21 22 50.7
r124 17 56 1.98872
r125 17 18 46.8
r126 13 28 4.56151
r127 13 14 74.1
r128 9 28 4.56151
r129 9 10 23.4
r130 5 26 4.56151
r131 5 6 27.3
r132 1 26 4.56151
r133 1 2 70.2
.ends

.subckt PM_ADDER_B_7 2 6 10 14 18 22 25 27 29 31 38 40 42 59 68 69
c87 69 0 0.0427816f
c88 59 0 0.00548118f
c89 42 0 0.00350511f
c90 40 0 0.0173123f
c91 38 0 0.00412465f
c92 31 0 0.00400535f
c93 29 0 0.0490214f
c94 28 0 0.0032225f
c95 27 0 0.00543758f
c96 26 0 0.0032225f
c97 25 0 0.00540428f
c98 22 0 0.0244984f
c99 18 0 0.0238829f
c100 14 0 0.0368421f
c101 10 0 0.0171604f
c102 6 0 0.0213687f
c103 2 0 0.0317939f
r104 68 69 4.11667
r105 65 68 1.07667
r106 56 59 3.9
r107 45 69 76.9138
r108 42 59 67.1147
r109 40 42 76.9138
r110 40 45 3.33333
r111 38 53 67.1147
r112 36 38 76.9138
r113 34 36 3.58333
r114 34 65 76.9138
r115 31 49 67.1147
r116 29 31 76.9138
r117 29 34 2.83333
r118 27 53 6.5
r119 27 28 0.043368
r120 25 49 6.5
r121 25 26 0.043368
r122 21 56 1.98872
r123 21 22 50.7
r124 17 56 1.98872
r125 17 18 46.8
r126 13 28 4.56151
r127 13 14 74.1
r128 9 28 4.56151
r129 9 10 23.4
r130 5 26 4.56151
r131 5 6 27.3
r132 1 26 4.56151
r133 1 2 70.2
.ends

.subckt PM_ADDER_B_6 2 6 10 14 18 22 25 27 29 31 38 40 42 59 68 69
c87 69 0 0.0427816f
c88 59 0 0.00529435f
c89 42 0 0.00356256f
c90 40 0 0.0115229f
c91 38 0 0.00412465f
c92 31 0 0.00400535f
c93 29 0 0.0490214f
c94 28 0 0.0032225f
c95 27 0 0.00543758f
c96 26 0 0.0032225f
c97 25 0 0.00540428f
c98 22 0 0.0244984f
c99 18 0 0.0240283f
c100 14 0 0.0368421f
c101 10 0 0.0171604f
c102 6 0 0.0213687f
c103 2 0 0.0317939f
r104 68 69 4.37
r105 65 68 0.823333
r106 56 59 3.9
r107 45 69 76.9138
r108 42 59 67.1147
r109 40 42 76.9138
r110 40 45 3.33333
r111 38 53 67.1147
r112 36 38 76.9138
r113 34 36 3.58333
r114 34 65 76.9138
r115 31 49 67.1147
r116 29 31 76.9138
r117 29 34 2.83333
r118 27 53 6.5
r119 27 28 0.043368
r120 25 49 6.5
r121 25 26 0.043368
r122 21 56 1.98872
r123 21 22 50.7
r124 17 56 1.98872
r125 17 18 46.8
r126 13 28 4.56151
r127 13 14 74.1
r128 9 28 4.56151
r129 9 10 23.4
r130 5 26 4.56151
r131 5 6 27.3
r132 1 26 4.56151
r133 1 2 70.2
.ends

.subckt PM_ADDER_B_5 2 6 10 14 18 22 25 27 29 31 38 40 42 59 68 69
c87 69 0 0.0427816f
c88 59 0 0.00548118f
c89 42 0 0.00350511f
c90 40 0 0.0173123f
c91 38 0 0.00412465f
c92 31 0 0.00400535f
c93 29 0 0.0490214f
c94 28 0 0.0032225f
c95 27 0 0.00543758f
c96 26 0 0.0032225f
c97 25 0 0.00540428f
c98 22 0 0.0244984f
c99 18 0 0.0238829f
c100 14 0 0.0368421f
c101 10 0 0.0171604f
c102 6 0 0.0213687f
c103 2 0 0.0317939f
r104 68 69 4.24333
r105 65 68 0.95
r106 56 59 3.9
r107 45 69 76.9138
r108 42 59 67.1147
r109 40 42 76.9138
r110 40 45 3.33333
r111 38 53 67.1147
r112 36 38 76.9138
r113 34 36 3.58333
r114 34 65 76.9138
r115 31 49 67.1147
r116 29 31 76.9138
r117 29 34 2.83333
r118 27 53 6.5
r119 27 28 0.043368
r120 25 49 6.5
r121 25 26 0.043368
r122 21 56 1.98872
r123 21 22 50.7
r124 17 56 1.98872
r125 17 18 46.8
r126 13 28 4.56151
r127 13 14 74.1
r128 9 28 4.56151
r129 9 10 23.4
r130 5 26 4.56151
r131 5 6 27.3
r132 1 26 4.56151
r133 1 2 70.2
.ends

.subckt PM_ADDER_B_4 2 6 10 14 18 22 25 27 29 31 38 40 42 59 68 69
c87 69 0 0.0427816f
c88 59 0 0.00529435f
c89 42 0 0.00356256f
c90 40 0 0.0115229f
c91 38 0 0.00412465f
c92 31 0 0.00400535f
c93 29 0 0.0490214f
c94 28 0 0.0032225f
c95 27 0 0.00543758f
c96 26 0 0.0032225f
c97 25 0 0.00540428f
c98 22 0 0.0244984f
c99 18 0 0.0240283f
c100 14 0 0.0368421f
c101 10 0 0.0171604f
c102 6 0 0.0213687f
c103 2 0 0.0317939f
r104 68 69 4.11667
r105 65 68 1.07667
r106 56 59 3.9
r107 45 69 76.9138
r108 42 59 67.1147
r109 40 42 76.9138
r110 40 45 3.33333
r111 38 53 67.1147
r112 36 38 76.9138
r113 34 36 3.58333
r114 34 65 76.9138
r115 31 49 67.1147
r116 29 31 76.9138
r117 29 34 2.83333
r118 27 53 6.5
r119 27 28 0.043368
r120 25 49 6.5
r121 25 26 0.043368
r122 21 56 1.98872
r123 21 22 50.7
r124 17 56 1.98872
r125 17 18 46.8
r126 13 28 4.56151
r127 13 14 74.1
r128 9 28 4.56151
r129 9 10 23.4
r130 5 26 4.56151
r131 5 6 27.3
r132 1 26 4.56151
r133 1 2 70.2
.ends

.subckt PM_ADDER_B_3 2 6 10 14 18 22 25 27 29 31 38 40 42 59 68 69
c87 69 0 0.0427816f
c88 59 0 0.00548118f
c89 42 0 0.00350511f
c90 40 0 0.0173123f
c91 38 0 0.00412465f
c92 31 0 0.00400535f
c93 29 0 0.0490214f
c94 28 0 0.0032225f
c95 27 0 0.00543758f
c96 26 0 0.0032225f
c97 25 0 0.00540428f
c98 22 0 0.0244984f
c99 18 0 0.0238829f
c100 14 0 0.0368421f
c101 10 0 0.0171604f
c102 6 0 0.0213687f
c103 2 0 0.0317939f
r104 68 69 4.24333
r105 65 68 0.95
r106 56 59 3.9
r107 45 69 76.9138
r108 42 59 67.1147
r109 40 42 76.9138
r110 40 45 3.33333
r111 38 53 67.1147
r112 36 38 76.9138
r113 34 36 3.58333
r114 34 65 76.9138
r115 31 49 67.1147
r116 29 31 76.9138
r117 29 34 2.83333
r118 27 53 6.5
r119 27 28 0.043368
r120 25 49 6.5
r121 25 26 0.043368
r122 21 56 1.98872
r123 21 22 50.7
r124 17 56 1.98872
r125 17 18 46.8
r126 13 28 4.56151
r127 13 14 74.1
r128 9 28 4.56151
r129 9 10 23.4
r130 5 26 4.56151
r131 5 6 27.3
r132 1 26 4.56151
r133 1 2 70.2
.ends

.subckt PM_ADDER_B_2 2 6 10 14 18 22 25 27 29 31 38 40 42 59 68 69
c87 69 0 0.0427816f
c88 59 0 0.00529435f
c89 42 0 0.00356256f
c90 40 0 0.0115229f
c91 38 0 0.00412465f
c92 31 0 0.00400535f
c93 29 0 0.0490214f
c94 28 0 0.0032225f
c95 27 0 0.00543758f
c96 26 0 0.0032225f
c97 25 0 0.00540428f
c98 22 0 0.0244984f
c99 18 0 0.0240283f
c100 14 0 0.0368421f
c101 10 0 0.0171604f
c102 6 0 0.0213687f
c103 2 0 0.0317939f
r104 68 69 3.86333
r105 65 68 1.33
r106 56 59 3.9
r107 45 69 76.9138
r108 42 59 67.1147
r109 40 42 76.9138
r110 40 45 3.33333
r111 38 53 67.1147
r112 36 38 76.9138
r113 34 36 3.58333
r114 34 65 76.9138
r115 31 49 67.1147
r116 29 31 76.9138
r117 29 34 2.83333
r118 27 53 6.5
r119 27 28 0.043368
r120 25 49 6.5
r121 25 26 0.043368
r122 21 56 1.98872
r123 21 22 50.7
r124 17 56 1.98872
r125 17 18 46.8
r126 13 28 4.56151
r127 13 14 74.1
r128 9 28 4.56151
r129 9 10 23.4
r130 5 26 4.56151
r131 5 6 27.3
r132 1 26 4.56151
r133 1 2 70.2
.ends

.subckt PM_ADDER_B_1 2 6 10 14 18 22 25 27 29 31 38 40 42 59 68 69
c87 69 0 0.0427816f
c88 59 0 0.00548118f
c89 42 0 0.00350511f
c90 40 0 0.0173123f
c91 38 0 0.00412465f
c92 31 0 0.00400535f
c93 29 0 0.0490214f
c94 28 0 0.0032225f
c95 27 0 0.00543758f
c96 26 0 0.0032225f
c97 25 0 0.00540428f
c98 22 0 0.0244984f
c99 18 0 0.0238829f
c100 14 0 0.0368421f
c101 10 0 0.0171604f
c102 6 0 0.0213687f
c103 2 0 0.0317939f
r104 68 69 3.73667
r105 65 68 1.45667
r106 56 59 3.9
r107 45 69 76.9138
r108 42 59 67.1147
r109 40 42 76.9138
r110 40 45 3.33333
r111 38 53 67.1147
r112 36 38 76.9138
r113 34 36 3.58333
r114 34 65 76.9138
r115 31 49 67.1147
r116 29 31 76.9138
r117 29 34 2.83333
r118 27 53 6.5
r119 27 28 0.043368
r120 25 49 6.5
r121 25 26 0.043368
r122 21 56 1.98872
r123 21 22 50.7
r124 17 56 1.98872
r125 17 18 46.8
r126 13 28 4.56151
r127 13 14 74.1
r128 9 28 4.56151
r129 9 10 23.4
r130 5 26 4.56151
r131 5 6 27.3
r132 1 26 4.56151
r133 1 2 70.2
.ends

.subckt PM_ADDER_B_0 2 6 10 14 18 22 25 27 29 31 38 40 42 59 68 69
c83 69 0 0.0427816f
c84 59 0 0.00529435f
c85 42 0 0.0037767f
c86 40 0 0.0186745f
c87 38 0 0.00412465f
c88 31 0 0.00400535f
c89 29 0 0.0490214f
c90 28 0 0.0032225f
c91 27 0 0.00543758f
c92 26 0 0.0032225f
c93 25 0 0.00540428f
c94 22 0 0.0244984f
c95 18 0 0.0238829f
c96 14 0 0.0368421f
c97 10 0 0.0171604f
c98 6 0 0.0213687f
c99 2 0 0.0317939f
r100 68 69 3.99
r101 65 68 1.20333
r102 56 59 3.9
r103 45 69 76.9138