* File: adder.pex.netlist
* Created: Fri Dec  9 14:04:08 2016
* Program "Calibre xRC"
* Version "v2011.3_18.12"
* 
.include "adder.pex.netlist.pex"
.subckt adder  A_15 A_14 A_13 A_12 A_11 A_10 A_9 A_8 A_7 A_6 A_5 A_4 A_3 A_2 A_1
+ A_0 B_15 B_14 B_13 B_12 B_11 B_10 B_9 B_8 B_7 B_6 B_5 B_4 B_3 B_2 B_1 B_0 GND!
+ S_0 COUT VDD! S_15 S_14 S_13 S_12 S_11 S_10 S_9 S_8 S_7 S_6 S_5 S_4 S_3 S_2
+ S_1
* 
* S_1	S_1
* S_2	S_2
* S_3	S_3
* S_4	S_4
* S_5	S_5
* S_6	S_6
* S_7	S_7
* S_8	S_8
* S_9	S_9
* S_10	S_10
* S_11	S_11
* S_12	S_12
* S_13	S_13
* S_14	S_14
* S_15	S_15
* VDD!	VDD!
* COUT	COUT
* S_0	S_0
* GND!	GND!
* B_0	B_0
* B_1	B_1
* B_2	B_2
* B_3	B_3
* B_4	B_4
* B_5	B_5
* B_6	B_6
* B_7	B_7
* B_8	B_8
* B_9	B_9
* B_10	B_10
* B_11	B_11
* B_12	B_12
* B_13	B_13
* B_14	B_14
* B_15	B_15
* A_0	A_0
* A_1	A_1
* A_2	A_2
* A_3	A_3
* A_4	A_4
* A_5	A_5
* A_6	A_6
* A_7	A_7
* A_8	A_8
* A_9	A_9
* A_10	A_10
* A_11	A_11
* A_12	A_12
* A_13	A_13
* A_14	A_14
* A_15	A_15
mXI35_XI1_MM0 N_XI35_XI1_NET8_XI35_XI1_MM0_d N_A_15_XI35_XI1_MM0_g
+ N_GND!_XI35_XI1_MM0_s N_GND!_XI35_XI1_MM0_b NMOS_VTL L=5e-08 W=1e-07
+ AD=1.75e-14 AS=1.5e-14 PD=5.5e-07 PS=5e-07
mXI35_XI0_MM3 XI35_XI0_NET13 N_A_15_XI35_XI0_MM3_g N_GND!_XI35_XI0_MM3_s
+ N_GND!_XI35_XI0_MM3_b NMOS_VTL L=5e-08 W=1e-07 AD=1.75e-14 AS=1.5e-14
+ PD=5.5e-07 PS=5e-07
mXI31_XI1_MM0 N_XI31_XI1_NET8_XI31_XI1_MM0_d N_A_14_XI31_XI1_MM0_g
+ N_GND!_XI31_XI1_MM0_s N_GND!_XI31_XI1_MM0_b NMOS_VTL L=5e-08 W=1e-07
+ AD=1.75e-14 AS=1.5e-14 PD=5.5e-07 PS=5e-07
mXI31_XI0_MM3 XI31_XI0_NET13 N_A_14_XI31_XI0_MM3_g N_GND!_XI31_XI0_MM3_s
+ N_GND!_XI31_XI0_MM3_b NMOS_VTL L=5e-08 W=1e-07 AD=1.75e-14 AS=1.5e-14
+ PD=5.5e-07 PS=5e-07
mXI34_XI1_MM0 N_XI34_XI1_NET8_XI34_XI1_MM0_d N_A_13_XI34_XI1_MM0_g
+ N_GND!_XI34_XI1_MM0_s N_GND!_XI34_XI1_MM0_b NMOS_VTL L=5e-08 W=1e-07
+ AD=1.75e-14 AS=1.5e-14 PD=5.5e-07 PS=5e-07
mXI34_XI0_MM3 XI34_XI0_NET13 N_A_13_XI34_XI0_MM3_g N_GND!_XI34_XI0_MM3_s
+ N_GND!_XI34_XI0_MM3_b NMOS_VTL L=5e-08 W=1e-07 AD=1.75e-14 AS=1.5e-14
+ PD=5.5e-07 PS=5e-07
mXI27_XI1_MM0 N_XI27_XI1_NET8_XI27_XI1_MM0_d N_A_12_XI27_XI1_MM0_g
+ N_GND!_XI27_XI1_MM0_s N_GND!_XI27_XI1_MM0_b NMOS_VTL L=5e-08 W=1e-07
+ AD=1.75e-14 AS=1.5e-14 PD=5.5e-07 PS=5e-07
mXI27_XI0_MM3 XI27_XI0_NET13 N_A_12_XI27_XI0_MM3_g N_GND!_XI27_XI0_MM3_s
+ N_GND!_XI27_XI0_MM3_b NMOS_VTL L=5e-08 W=1e-07 AD=1.75e-14 AS=1.5e-14
+ PD=5.5e-07 PS=5e-07
mXI30_XI1_MM0 N_XI30_XI1_NET8_XI30_XI1_MM0_d N_A_11_XI30_XI1_MM0_g
+ N_GND!_XI30_XI1_MM0_s N_GND!_XI30_XI1_MM0_b NMOS_VTL L=5e-08 W=1e-07
+ AD=1.75e-14 AS=1.5e-14 PD=5.5e-07 PS=5e-07
mXI30_XI0_MM3 XI30_XI0_NET13 N_A_11_XI30_XI0_MM3_g N_GND!_XI30_XI0_MM3_s
+ N_GND!_XI30_XI0_MM3_b NMOS_VTL L=5e-08 W=1e-07 AD=1.75e-14 AS=1.5e-14
+ PD=5.5e-07 PS=5e-07
mXI23_XI1_MM0 N_XI23_XI1_NET8_XI23_XI1_MM0_d N_A_10_XI23_XI1_MM0_g
+ N_GND!_XI23_XI1_MM0_s N_GND!_XI23_XI1_MM0_b NMOS_VTL L=5e-08 W=1e-07
+ AD=1.75e-14 AS=1.5e-14 PD=5.5e-07 PS=5e-07
mXI23_XI0_MM3 XI23_XI0_NET13 N_A_10_XI23_XI0_MM3_g N_GND!_XI23_XI0_MM3_s
+ N_GND!_XI23_XI0_MM3_b NMOS_VTL L=5e-08 W=1e-07 AD=1.75e-14 AS=1.5e-14
+ PD=5.5e-07 PS=5e-07
mXI26_XI1_MM0 N_XI26_XI1_NET8_XI26_XI1_MM0_d N_A_9_XI26_XI1_MM0_g
+ N_GND!_XI26_XI1_MM0_s N_GND!_XI26_XI1_MM0_b NMOS_VTL L=5e-08 W=1e-07
+ AD=1.75e-14 AS=1.5e-14 PD=5.5e-07 PS=5e-07
mXI26_XI0_MM3 XI26_XI0_NET13 N_A_9_XI26_XI0_MM3_g N_GND!_XI26_XI0_MM3_s
+ N_GND!_XI26_XI0_MM3_b NMOS_VTL L=5e-08 W=1e-07 AD=1.75e-14 AS=1.5e-14
+ PD=5.5e-07 PS=5e-07
mXI19_XI1_MM0 N_XI19_XI1_NET8_XI19_XI1_MM0_d N_A_8_XI19_XI1_MM0_g
+ N_GND!_XI19_XI1_MM0_s N_GND!_XI19_XI1_MM0_b NMOS_VTL L=5e-08 W=1e-07
+ AD=1.75e-14 AS=1.5e-14 PD=5.5e-07 PS=5e-07
mXI19_XI0_MM3 XI19_XI0_NET13 N_A_8_XI19_XI0_MM3_g N_GND!_XI19_XI0_MM3_s
+ N_GND!_XI19_XI0_MM3_b NMOS_VTL L=5e-08 W=1e-07 AD=1.75e-14 AS=1.5e-14
+ PD=5.5e-07 PS=5e-07
mXI22_XI1_MM0 N_XI22_XI1_NET8_XI22_XI1_MM0_d N_A_7_XI22_XI1_MM0_g
+ N_GND!_XI22_XI1_MM0_s N_GND!_XI22_XI1_MM0_b NMOS_VTL L=5e-08 W=1e-07
+ AD=1.75e-14 AS=1.5e-14 PD=5.5e-07 PS=5e-07
mXI22_XI0_MM3 XI22_XI0_NET13 N_A_7_XI22_XI0_MM3_g N_GND!_XI22_XI0_MM3_s
+ N_GND!_XI22_XI0_MM3_b NMOS_VTL L=5e-08 W=1e-07 AD=1.75e-14 AS=1.5e-14
+ PD=5.5e-07 PS=5e-07
mXI15_XI1_MM0 N_XI15_XI1_NET8_XI15_XI1_MM0_d N_A_6_XI15_XI1_MM0_g
+ N_GND!_XI15_XI1_MM0_s N_GND!_XI15_XI1_MM0_b NMOS_VTL L=5e-08 W=1e-07
+ AD=1.75e-14 AS=1.5e-14 PD=5.5e-07 PS=5e-07
mXI15_XI0_MM3 XI15_XI0_NET13 N_A_6_XI15_XI0_MM3_g N_GND!_XI15_XI0_MM3_s
+ N_GND!_XI15_XI0_MM3_b NMOS_VTL L=5e-08 W=1e-07 AD=1.75e-14 AS=1.5e-14
+ PD=5.5e-07 PS=5e-07
mXI18_XI1_MM0 N_XI18_XI1_NET8_XI18_XI1_MM0_d N_A_5_XI18_XI1_MM0_g
+ N_GND!_XI18_XI1_MM0_s N_GND!_XI18_XI1_MM0_b NMOS_VTL L=5e-08 W=1e-07
+ AD=1.75e-14 AS=1.5e-14 PD=5.5e-07 PS=5e-07
mXI18_XI0_MM3 XI18_XI0_NET13 N_A_5_XI18_XI0_MM3_g N_GND!_XI18_XI0_MM3_s
+ N_GND!_XI18_XI0_MM3_b NMOS_VTL L=5e-08 W=1e-07 AD=1.75e-14 AS=1.5e-14
+ PD=5.5e-07 PS=5e-07
mXI11_XI1_MM0 N_XI11_XI1_NET8_XI11_XI1_MM0_d N_A_4_XI11_XI1_MM0_g
+ N_GND!_XI11_XI1_MM0_s N_GND!_XI11_XI1_MM0_b NMOS_VTL L=5e-08 W=1e-07
+ AD=1.75e-14 AS=1.5e-14 PD=5.5e-07 PS=5e-07
mXI11_XI0_MM3 XI11_XI0_NET13 N_A_4_XI11_XI0_MM3_g N_GND!_XI11_XI0_MM3_s
+ N_GND!_XI11_XI0_MM3_b NMOS_VTL L=5e-08 W=1e-07 AD=1.75e-14 AS=1.5e-14
+ PD=5.5e-07 PS=5e-07
mXI14_XI1_MM0 N_XI14_XI1_NET8_XI14_XI1_MM0_d N_A_3_XI14_XI1_MM0_g
+ N_GND!_XI14_XI1_MM0_s N_GND!_XI14_XI1_MM0_b NMOS_VTL L=5e-08 W=1e-07
+ AD=1.75e-14 AS=1.5e-14 PD=5.5e-07 PS=5e-07
mXI14_XI0_MM3 XI14_XI0_NET13 N_A_3_XI14_XI0_MM3_g N_GND!_XI14_XI0_MM3_s
+ N_GND!_XI14_XI0_MM3_b NMOS_VTL L=5e-08 W=1e-07 AD=1.75e-14 AS=1.5e-14
+ PD=5.5e-07 PS=5e-07
mXI8_XI1_MM0 N_XI8_XI1_NET8_XI8_XI1_MM0_d N_A_2_XI8_XI1_MM0_g
+ N_GND!_XI8_XI1_MM0_s N_GND!_XI8_XI1_MM0_b NMOS_VTL L=5e-08 W=1e-07 AD=1.75e-14
+ AS=1.5e-14 PD=5.5e-07 PS=5e-07
mXI8_XI0_MM3 XI8_XI0_NET13 N_A_2_XI8_XI0_MM3_g N_GND!_XI8_XI0_MM3_s
+ N_GND!_XI8_XI0_MM3_b NMOS_VTL L=5e-08 W=1e-07 AD=1.75e-14 AS=1.5e-14
+ PD=5.5e-07 PS=5e-07
mXI9_XI1_MM0 N_XI9_XI1_NET8_XI9_XI1_MM0_d N_A_1_XI9_XI1_MM0_g
+ N_GND!_XI9_XI1_MM0_s N_GND!_XI9_XI1_MM0_b NMOS_VTL L=5e-08 W=1e-07 AD=1.75e-14
+ AS=1.5e-14 PD=5.5e-07 PS=5e-07
mXI9_XI0_MM3 XI9_XI0_NET13 N_A_1_XI9_XI0_MM3_g N_GND!_XI9_XI0_MM3_s
+ N_GND!_XI9_XI0_MM3_b NMOS_VTL L=5e-08 W=1e-07 AD=1.75e-14 AS=1.5e-14
+ PD=5.5e-07 PS=5e-07
mXI6_XI1_MM0 N_XI6_XI1_NET8_XI6_XI1_MM0_d N_A_0_XI6_XI1_MM0_g
+ N_GND!_XI6_XI1_MM0_s N_GND!_XI6_XI1_MM0_b NMOS_VTL L=5e-08 W=1e-07 AD=1.75e-14
+ AS=1.5e-14 PD=5.5e-07 PS=5e-07
mXI6_XI0_MM3 XI6_XI0_NET13 N_A_0_XI6_XI0_MM3_g N_GND!_XI6_XI0_MM3_s
+ N_GND!_XI6_XI0_MM3_b NMOS_VTL L=5e-08 W=1e-07 AD=1.75e-14 AS=1.5e-14
+ PD=5.5e-07 PS=5e-07
mXI35_XI1_MM1 N_XI35_XI1_NET8_XI35_XI1_MM0_d N_B_15_XI35_XI1_MM1_g
+ N_GND!_XI35_XI1_MM1_s N_GND!_XI35_XI1_MM0_b NMOS_VTL L=5e-08 W=1e-07
+ AD=1.75e-14 AS=1.5e-14 PD=5.5e-07 PS=5e-07
mXI35_XI0_MM2 N_XI35_NET5_XI35_XI0_MM2_d N_B_15_XI35_XI0_MM2_g XI35_XI0_NET13
+ N_GND!_XI35_XI0_MM3_b NMOS_VTL L=5e-08 W=1e-07 AD=1.5e-14 AS=1.75e-14 PD=5e-07
+ PS=5.5e-07
mXI31_XI1_MM1 N_XI31_XI1_NET8_XI31_XI1_MM0_d N_B_14_XI31_XI1_MM1_g
+ N_GND!_XI31_XI1_MM1_s N_GND!_XI31_XI1_MM0_b NMOS_VTL L=5e-08 W=1e-07
+ AD=1.75e-14 AS=1.5e-14 PD=5.5e-07 PS=5e-07
mXI31_XI0_MM2 N_XI31_NET5_XI31_XI0_MM2_d N_B_14_XI31_XI0_MM2_g XI31_XI0_NET13
+ N_GND!_XI31_XI0_MM3_b NMOS_VTL L=5e-08 W=1e-07 AD=1.5e-14 AS=1.75e-14 PD=5e-07
+ PS=5.5e-07
mXI34_XI1_MM1 N_XI34_XI1_NET8_XI34_XI1_MM0_d N_B_13_XI34_XI1_MM1_g
+ N_GND!_XI34_XI1_MM1_s N_GND!_XI34_XI1_MM0_b NMOS_VTL L=5e-08 W=1e-07
+ AD=1.75e-14 AS=1.5e-14 PD=5.5e-07 PS=5e-07
mXI34_XI0_MM2 N_XI34_NET5_XI34_XI0_MM2_d N_B_13_XI34_XI0_MM2_g XI34_XI0_NET13
+ N_GND!_XI34_XI0_MM3_b NMOS_VTL L=5e-08 W=1e-07 AD=1.5e-14 AS=1.75e-14 PD=5e-07
+ PS=5.5e-07
mXI27_XI1_MM1 N_XI27_XI1_NET8_XI27_XI1_MM0_d N_B_12_XI27_XI1_MM1_g
+ N_GND!_XI27_XI1_MM1_s N_GND!_XI27_XI1_MM0_b NMOS_VTL L=5e-08 W=1e-07
+ AD=1.75e-14 AS=1.5e-14 PD=5.5e-07 PS=5e-07
mXI27_XI0_MM2 N_XI27_NET5_XI27_XI0_MM2_d N_B_12_XI27_XI0_MM2_g XI27_XI0_NET13
+ N_GND!_XI27_XI0_MM3_b NMOS_VTL L=5e-08 W=1e-07 AD=1.5e-14 AS=1.75e-14 PD=5e-07
+ PS=5.5e-07
mXI30_XI1_MM1 N_XI30_XI1_NET8_XI30_XI1_MM0_d N_B_11_XI30_XI1_MM1_g
+ N_GND!_XI30_XI1_MM1_s N_GND!_XI30_XI1_MM0_b NMOS_VTL L=5e-08 W=1e-07
+ AD=1.75e-14 AS=1.5e-14 PD=5.5e-07 PS=5e-07
mXI30_XI0_MM2 N_XI30_NET5_XI30_XI0_MM2_d N_B_11_XI30_XI0_MM2_g XI30_XI0_NET13
+ N_GND!_XI30_XI0_MM3_b NMOS_VTL L=5e-08 W=1e-07 AD=1.5e-14 AS=1.75e-14 PD=5e-07
+ PS=5.5e-07
mXI23_XI1_MM1 N_XI23_XI1_NET8_XI23_XI1_MM0_d N_B_10_XI23_XI1_MM1_g
+ N_GND!_XI23_XI1_MM1_s N_GND!_XI23_XI1_MM0_b NMOS_VTL L=5e-08 W=1e-07
+ AD=1.75e-14 AS=1.5e-14 PD=5.5e-07 PS=5e-07
mXI23_XI0_MM2 N_XI23_NET5_XI23_XI0_MM2_d N_B_10_XI23_XI0_MM2_g XI23_XI0_NET13
+ N_GND!_XI23_XI0_MM3_b NMOS_VTL L=5e-08 W=1e-07 AD=1.5e-14 AS=1.75e-14 PD=5e-07
+ PS=5.5e-07
mXI26_XI1_MM1 N_XI26_XI1_NET8_XI26_XI1_MM0_d N_B_9_XI26_XI1_MM1_g
+ N_GND!_XI26_XI1_MM1_s N_GND!_XI26_XI1_MM0_b NMOS_VTL L=5e-08 W=1e-07
+ AD=1.75e-14 AS=1.5e-14 PD=5.5e-07 PS=5e-07
mXI26_XI0_MM2 N_XI26_NET5_XI26_XI0_MM2_d N_B_9_XI26_XI0_MM2_g XI26_XI0_NET13
+ N_GND!_XI26_XI0_MM3_b NMOS_VTL L=5e-08 W=1e-07 AD=1.5e-14 AS=1.75e-14 PD=5e-07
+ PS=5.5e-07
mXI19_XI1_MM1 N_XI19_XI1_NET8_XI19_XI1_MM0_d N_B_8_XI19_XI1_MM1_g
+ N_GND!_XI19_XI1_MM1_s N_GND!_XI19_XI1_MM0_b NMOS_VTL L=5e-08 W=1e-07
+ AD=1.75e-14 AS=1.5e-14 PD=5.5e-07 PS=5e-07
mXI19_XI0_MM2 N_XI19_NET5_XI19_XI0_MM2_d N_B_8_XI19_XI0_MM2_g XI19_XI0_NET13
+ N_GND!_XI19_XI0_MM3_b NMOS_VTL L=5e-08 W=1e-07 AD=1.5e-14 AS=1.75e-14 PD=5e-07
+ PS=5.5e-07
mXI22_XI1_MM1 N_XI22_XI1_NET8_XI22_XI1_MM0_d N_B_7_XI22_XI1_MM1_g
+ N_GND!_XI22_XI1_MM1_s N_GND!_XI22_XI1_MM0_b NMOS_VTL L=5e-08 W=1e-07
+ AD=1.75e-14 AS=1.5e-14 PD=5.5e-07 PS=5e-07
mXI22_XI0_MM2 N_XI22_NET5_XI22_XI0_MM2_d N_B_7_XI22_XI0_MM2_g XI22_XI0_NET13
+ N_GND!_XI22_XI0_MM3_b NMOS_VTL L=5e-08 W=1e-07 AD=1.5e-14 AS=1.75e-14 PD=5e-07
+ PS=5.5e-07
mXI15_XI1_MM1 N_XI15_XI1_NET8_XI15_XI1_MM0_d N_B_6_XI15_XI1_MM1_g
+ N_GND!_XI15_XI1_MM1_s N_GND!_XI15_XI1_MM0_b NMOS_VTL L=5e-08 W=1e-07
+ AD=1.75e-14 AS=1.5e-14 PD=5.5e-07 PS=5e-07
mXI15_XI0_MM2 N_XI15_NET5_XI15_XI0_MM2_d N_B_6_XI15_XI0_MM2_g XI15_XI0_NET13
+ N_GND!_XI15_XI0_MM3_b NMOS_VTL L=5e-08 W=1e-07 AD=1.5e-14 AS=1.75e-14 PD=5e-07
+ PS=5.5e-07
mXI18_XI1_MM1 N_XI18_XI1_NET8_XI18_XI1_MM0_d N_B_5_XI18_XI1_MM1_g
+ N_GND!_XI18_XI1_MM1_s N_GND!_XI18_XI1_MM0_b NMOS_VTL L=5e-08 W=1e-07
+ AD=1.75e-14 AS=1.5e-14 PD=5.5e-07 PS=5e-07
mXI18_XI0_MM2 N_XI18_NET5_XI18_XI0_MM2_d N_B_5_XI18_XI0_MM2_g XI18_XI0_NET13
+ N_GND!_XI18_XI0_MM3_b NMOS_VTL L=5e-08 W=1e-07 AD=1.5e-14 AS=1.75e-14 PD=5e-07
+ PS=5.5e-07
mXI11_XI1_MM1 N_XI11_XI1_NET8_XI11_XI1_MM0_d N_B_4_XI11_XI1_MM1_g
+ N_GND!_XI11_XI1_MM1_s N_GND!_XI11_XI1_MM0_b NMOS_VTL L=5e-08 W=1e-07
+ AD=1.75e-14 AS=1.5e-14 PD=5.5e-07 PS=5e-07
mXI11_XI0_MM2 N_XI11_NET5_XI11_XI0_MM2_d N_B_4_XI11_XI0_MM2_g XI11_XI0_NET13
+ N_GND!_XI11_XI0_MM3_b NMOS_VTL L=5e-08 W=1e-07 AD=1.5e-14 AS=1.75e-14 PD=5e-07
+ PS=5.5e-07
mXI14_XI1_MM1 N_XI14_XI1_NET8_XI14_XI1_MM0_d N_B_3_XI14_XI1_MM1_g
+ N_GND!_XI14_XI1_MM1_s N_GND!_XI14_XI1_MM0_b NMOS_VTL L=5e-08 W=1e-07
+ AD=1.75e-14 AS=1.5e-14 PD=5.5e-07 PS=5e-07
mXI14_XI0_MM2 N_XI14_NET5_XI14_XI0_MM2_d N_B_3_XI14_XI0_MM2_g XI14_XI0_NET13
+ N_GND!_XI14_XI0_MM3_b NMOS_VTL L=5e-08 W=1e-07 AD=1.5e-14 AS=1.75e-14 PD=5e-07
+ PS=5.5e-07
mXI8_XI1_MM1 N_XI8_XI1_NET8_XI8_XI1_MM0_d N_B_2_XI8_XI1_MM1_g
+ N_GND!_XI8_XI1_MM1_s N_GND!_XI8_XI1_MM0_b NMOS_VTL L=5e-08 W=1e-07 AD=1.75e-14
+ AS=1.5e-14 PD=5.5e-07 PS=5e-07
mXI8_XI0_MM2 N_XI8_NET5_XI8_XI0_MM2_d N_B_2_XI8_XI0_MM2_g XI8_XI0_NET13
+ N_GND!_XI8_XI0_MM3_b NMOS_VTL L=5e-08 W=1e-07 AD=1.5e-14 AS=1.75e-14 PD=5e-07
+ PS=5.5e-07
mXI9_XI1_MM1 N_XI9_XI1_NET8_XI9_XI1_MM0_d N_B_1_XI9_XI1_MM1_g
+ N_GND!_XI9_XI1_MM1_s N_GND!_XI9_XI1_MM0_b NMOS_VTL L=5e-08 W=1e-07 AD=1.75e-14
+ AS=1.5e-14 PD=5.5e-07 PS=5e-07
mXI9_XI0_MM2 N_XI9_NET5_XI9_XI0_MM2_d N_B_1_XI9_XI0_MM2_g XI9_XI0_NET13
+ N_GND!_XI9_XI0_MM3_b NMOS_VTL L=5e-08 W=1e-07 AD=1.5e-14 AS=1.75e-14 PD=5e-07
+ PS=5.5e-07
mXI6_XI1_MM1 N_XI6_XI1_NET8_XI6_XI1_MM0_d N_B_0_XI6_XI1_MM1_g
+ N_GND!_XI6_XI1_MM1_s N_GND!_XI6_XI1_MM0_b NMOS_VTL L=5e-08 W=1e-07 AD=1.75e-14
+ AS=1.5e-14 PD=5.5e-07 PS=5e-07
mXI6_XI0_MM2 N_XI6_NET5_XI6_XI0_MM2_d N_B_0_XI6_XI0_MM2_g XI6_XI0_NET13
+ N_GND!_XI6_XI0_MM3_b NMOS_VTL L=5e-08 W=1e-07 AD=1.5e-14 AS=1.75e-14 PD=5e-07
+ PS=5.5e-07
mXI35_XI1_MM2 N_P16_XI35_XI1_MM2_d N_XI35_XI1_NET8_XI35_XI1_MM2_g
+ N_GND!_XI35_XI1_MM2_s N_GND!_XI35_XI1_MM0_b NMOS_VTL L=5e-08 W=1e-07
+ AD=1.5e-14 AS=1.75e-14 PD=5e-07 PS=5.5e-07
mXI31_XI1_MM2 N_P15_XI31_XI1_MM2_d N_XI31_XI1_NET8_XI31_XI1_MM2_g
+ N_GND!_XI31_XI1_MM2_s N_GND!_XI31_XI1_MM0_b NMOS_VTL L=5e-08 W=1e-07
+ AD=1.5e-14 AS=1.75e-14 PD=5e-07 PS=5.5e-07
mXI34_XI1_MM2 N_P14_XI34_XI1_MM2_d N_XI34_XI1_NET8_XI34_XI1_MM2_g
+ N_GND!_XI34_XI1_MM2_s N_GND!_XI34_XI1_MM0_b NMOS_VTL L=5e-08 W=1e-07
+ AD=1.5e-14 AS=1.75e-14 PD=5e-07 PS=5.5e-07
mXI27_XI1_MM2 N_P13_XI27_XI1_MM2_d N_XI27_XI1_NET8_XI27_XI1_MM2_g
+ N_GND!_XI27_XI1_MM2_s N_GND!_XI27_XI1_MM0_b NMOS_VTL L=5e-08 W=1e-07
+ AD=1.5e-14 AS=1.75e-14 PD=5e-07 PS=5.5e-07
mXI30_XI1_MM2 N_P12_XI30_XI1_MM2_d N_XI30_XI1_NET8_XI30_XI1_MM2_g
+ N_GND!_XI30_XI1_MM2_s N_GND!_XI30_XI1_MM0_b NMOS_VTL L=5e-08 W=1e-07
+ AD=1.5e-14 AS=1.75e-14 PD=5e-07 PS=5.5e-07
mXI23_XI1_MM2 N_P11_XI23_XI1_MM2_d N_XI23_XI1_NET8_XI23_XI1_MM2_g
+ N_GND!_XI23_XI1_MM2_s N_GND!_XI23_XI1_MM0_b NMOS_VTL L=5e-08 W=1e-07
+ AD=1.5e-14 AS=1.75e-14 PD=5e-07 PS=5.5e-07
mXI26_XI1_MM2 N_P10_XI26_XI1_MM2_d N_XI26_XI1_NET8_XI26_XI1_MM2_g
+ N_GND!_XI26_XI1_MM2_s N_GND!_XI26_XI1_MM0_b NMOS_VTL L=5e-08 W=1e-07
+ AD=1.5e-14 AS=1.75e-14 PD=5e-07 PS=5.5e-07
mXI19_XI1_MM2 N_P9_XI19_XI1_MM2_d N_XI19_XI1_NET8_XI19_XI1_MM2_g
+ N_GND!_XI19_XI1_MM2_s N_GND!_XI19_XI1_MM0_b NMOS_VTL L=5e-08 W=1e-07
+ AD=1.5e-14 AS=1.75e-14 PD=5e-07 PS=5.5e-07
mXI22_XI1_MM2 N_P8_XI22_XI1_MM2_d N_XI22_XI1_NET8_XI22_XI1_MM2_g
+ N_GND!_XI22_XI1_MM2_s N_GND!_XI22_XI1_MM0_b NMOS_VTL L=5e-08 W=1e-07
+ AD=1.5e-14 AS=1.75e-14 PD=5e-07 PS=5.5e-07
mXI15_XI1_MM2 N_P7_XI15_XI1_MM2_d N_XI15_XI1_NET8_XI15_XI1_MM2_g
+ N_GND!_XI15_XI1_MM2_s N_GND!_XI15_XI1_MM0_b NMOS_VTL L=5e-08 W=1e-07
+ AD=1.5e-14 AS=1.75e-14 PD=5e-07 PS=5.5e-07
mXI18_XI1_MM2 N_P6_XI18_XI1_MM2_d N_XI18_XI1_NET8_XI18_XI1_MM2_g
+ N_GND!_XI18_XI1_MM2_s N_GND!_XI18_XI1_MM0_b NMOS_VTL L=5e-08 W=1e-07
+ AD=1.5e-14 AS=1.75e-14 PD=5e-07 PS=5.5e-07
mXI11_XI1_MM2 N_P5_XI11_XI1_MM2_d N_XI11_XI1_NET8_XI11_XI1_MM2_g
+ N_GND!_XI11_XI1_MM2_s N_GND!_XI11_XI1_MM0_b NMOS_VTL L=5e-08 W=1e-07
+ AD=1.5e-14 AS=1.75e-14 PD=5e-07 PS=5.5e-07
mXI14_XI1_MM2 N_P4_XI14_XI1_MM2_d N_XI14_XI1_NET8_XI14_XI1_MM2_g
+ N_GND!_XI14_XI1_MM2_s N_GND!_XI14_XI1_MM0_b NMOS_VTL L=5e-08 W=1e-07
+ AD=1.5e-14 AS=1.75e-14 PD=5e-07 PS=5.5e-07
mXI8_XI1_MM2 N_P3_XI8_XI1_MM2_d N_XI8_XI1_NET8_XI8_XI1_MM2_g
+ N_GND!_XI8_XI1_MM2_s N_GND!_XI8_XI1_MM0_b NMOS_VTL L=5e-08 W=1e-07 AD=1.5e-14
+ AS=1.75e-14 PD=5e-07 PS=5.5e-07
mXI9_XI1_MM2 N_P2_XI9_XI1_MM2_d N_XI9_XI1_NET8_XI9_XI1_MM2_g
+ N_GND!_XI9_XI1_MM2_s N_GND!_XI9_XI1_MM0_b NMOS_VTL L=5e-08 W=1e-07 AD=1.5e-14
+ AS=1.75e-14 PD=5e-07 PS=5.5e-07
mXI6_XI1_MM2 N_P1_XI6_XI1_MM2_d N_XI6_XI1_NET8_XI6_XI1_MM2_g
+ N_GND!_XI6_XI1_MM2_s N_GND!_XI6_XI1_MM0_b NMOS_VTL L=5e-08 W=1e-07 AD=1.5e-14
+ AS=1.75e-14 PD=5e-07 PS=5.5e-07
mXI35_XI2_MM0 N_G16_XI35_XI2_MM0_d N_XI35_NET5_XI35_XI2_MM0_g
+ N_GND!_XI35_XI2_MM0_s N_GND!_XI35_XI0_MM3_b NMOS_VTL L=5e-08 W=1e-07
+ AD=1.5e-14 AS=1.5e-14 PD=5e-07 PS=5e-07
mXI31_XI2_MM0 N_G15_XI31_XI2_MM0_d N_XI31_NET5_XI31_XI2_MM0_g
+ N_GND!_XI31_XI2_MM0_s N_GND!_XI31_XI0_MM3_b NMOS_VTL L=5e-08 W=1e-07
+ AD=1.5e-14 AS=1.5e-14 PD=5e-07 PS=5e-07
mXI34_XI2_MM0 N_G14_XI34_XI2_MM0_d N_XI34_NET5_XI34_XI2_MM0_g
+ N_GND!_XI34_XI2_MM0_s N_GND!_XI34_XI0_MM3_b NMOS_VTL L=5e-08 W=1e-07
+ AD=1.5e-14 AS=1.5e-14 PD=5e-07 PS=5e-07
mXI27_XI2_MM0 N_G13_XI27_XI2_MM0_d N_XI27_NET5_XI27_XI2_MM0_g
+ N_GND!_XI27_XI2_MM0_s N_GND!_XI27_XI0_MM3_b NMOS_VTL L=5e-08 W=1e-07
+ AD=1.5e-14 AS=1.5e-14 PD=5e-07 PS=5e-07
mXI30_XI2_MM0 N_G12_XI30_XI2_MM0_d N_XI30_NET5_XI30_XI2_MM0_g
+ N_GND!_XI30_XI2_MM0_s N_GND!_XI30_XI0_MM3_b NMOS_VTL L=5e-08 W=1e-07
+ AD=1.5e-14 AS=1.5e-14 PD=5e-07 PS=5e-07
mXI23_XI2_MM0 N_G11_XI23_XI2_MM0_d N_XI23_NET5_XI23_XI2_MM0_g
+ N_GND!_XI23_XI2_MM0_s N_GND!_XI23_XI0_MM3_b NMOS_VTL L=5e-08 W=1e-07
+ AD=1.5e-14 AS=1.5e-14 PD=5e-07 PS=5e-07
mXI26_XI2_MM0 N_G10_XI26_XI2_MM0_d N_XI26_NET5_XI26_XI2_MM0_g
+ N_GND!_XI26_XI2_MM0_s N_GND!_XI26_XI0_MM3_b NMOS_VTL L=5e-08 W=1e-07
+ AD=1.5e-14 AS=1.5e-14 PD=5e-07 PS=5e-07
mXI19_XI2_MM0 N_G9_XI19_XI2_MM0_d N_XI19_NET5_XI19_XI2_MM0_g
+ N_GND!_XI19_XI2_MM0_s N_GND!_XI19_XI0_MM3_b NMOS_VTL L=5e-08 W=1e-07
+ AD=1.5e-14 AS=1.5e-14 PD=5e-07 PS=5e-07
mXI22_XI2_MM0 N_G8_XI22_XI2_MM0_d N_XI22_NET5_XI22_XI2_MM0_g
+ N_GND!_XI22_XI2_MM0_s N_GND!_XI22_XI0_MM3_b NMOS_VTL L=5e-08 W=1e-07
+ AD=1.5e-14 AS=1.5e-14 PD=5e-07 PS=5e-07
mXI15_XI2_MM0 N_G7_XI15_XI2_MM0_d N_XI15_NET5_XI15_XI2_MM0_g
+ N_GND!_XI15_XI2_MM0_s N_GND!_XI15_XI0_MM3_b NMOS_VTL L=5e-08 W=1e-07
+ AD=1.5e-14 AS=1.5e-14 PD=5e-07 PS=5e-07
mXI18_XI2_MM0 N_G6_XI18_XI2_MM0_d N_XI18_NET5_XI18_XI2_MM0_g
+ N_GND!_XI18_XI2_MM0_s N_GND!_XI18_XI0_MM3_b NMOS_VTL L=5e-08 W=1e-07
+ AD=1.5e-14 AS=1.5e-14 PD=5e-07 PS=5e-07
mXI11_XI2_MM0 N_G5_XI11_XI2_MM0_d N_XI11_NET5_XI11_XI2_MM0_g
+ N_GND!_XI11_XI2_MM0_s N_GND!_XI11_XI0_MM3_b NMOS_VTL L=5e-08 W=1e-07
+ AD=1.5e-14 AS=1.5e-14 PD=5e-07 PS=5e-07
mXI14_XI2_MM0 N_G4_XI14_XI2_MM0_d N_XI14_NET5_XI14_XI2_MM0_g
+ N_GND!_XI14_XI2_MM0_s N_GND!_XI14_XI0_MM3_b NMOS_VTL L=5e-08 W=1e-07
+ AD=1.5e-14 AS=1.5e-14 PD=5e-07 PS=5e-07
mXI8_XI2_MM0 N_G3_XI8_XI2_MM0_d N_XI8_NET5_XI8_XI2_MM0_g N_GND!_XI8_XI2_MM0_s
+ N_GND!_XI8_XI0_MM3_b NMOS_VTL L=5e-08 W=1e-07 AD=1.5e-14 AS=1.5e-14 PD=5e-07
+ PS=5e-07
mXI9_XI2_MM0 N_G2_XI9_XI2_MM0_d N_XI9_NET5_XI9_XI2_MM0_g N_GND!_XI9_XI2_MM0_s
+ N_GND!_XI9_XI0_MM3_b NMOS_VTL L=5e-08 W=1e-07 AD=1.5e-14 AS=1.5e-14 PD=5e-07
+ PS=5e-07
mXI6_XI2_MM0 N_G1_XI6_XI2_MM0_d N_XI6_NET5_XI6_XI2_MM0_g N_GND!_XI6_XI2_MM0_s
+ N_GND!_XI6_XI0_MM3_b NMOS_VTL L=5e-08 W=1e-07 AD=1.5e-14 AS=1.5e-14 PD=5e-07
+ PS=5e-07
mXI35_XI1_MM3 XI35_XI1_NET18 N_A_15_XI35_XI1_MM3_g N_GND!_XI35_XI1_MM2_s
+ N_GND!_XI35_XI1_MM0_b NMOS_VTL L=5e-08 W=1e-07 AD=1.75e-14 AS=1.75e-14
+ PD=5.5e-07 PS=5.5e-07
mXI31_XI1_MM3 XI31_XI1_NET18 N_A_14_XI31_XI1_MM3_g N_GND!_XI31_XI1_MM2_s
+ N_GND!_XI31_XI1_MM0_b NMOS_VTL L=5e-08 W=1e-07 AD=1.75e-14 AS=1.75e-14
+ PD=5.5e-07 PS=5.5e-07
mXI34_XI1_MM3 XI34_XI1_NET18 N_A_13_XI34_XI1_MM3_g N_GND!_XI34_XI1_MM2_s
+ N_GND!_XI34_XI1_MM0_b NMOS_VTL L=5e-08 W=1e-07 AD=1.75e-14 AS=1.75e-14
+ PD=5.5e-07 PS=5.5e-07
mXI27_XI1_MM3 XI27_XI1_NET18 N_A_12_XI27_XI1_MM3_g N_GND!_XI27_XI1_MM2_s
+ N_GND!_XI27_XI1_MM0_b NMOS_VTL L=5e-08 W=1e-07 AD=1.75e-14 AS=1.75e-14
+ PD=5.5e-07 PS=5.5e-07
mXI30_XI1_MM3 XI30_XI1_NET18 N_A_11_XI30_XI1_MM3_g N_GND!_XI30_XI1_MM2_s
+ N_GND!_XI30_XI1_MM0_b NMOS_VTL L=5e-08 W=1e-07 AD=1.75e-14 AS=1.75e-14
+ PD=5.5e-07 PS=5.5e-07
mXI23_XI1_MM3 XI23_XI1_NET18 N_A_10_XI23_XI1_MM3_g N_GND!_XI23_XI1_MM2_s
+ N_GND!_XI23_XI1_MM0_b NMOS_VTL L=5e-08 W=1e-07 AD=1.75e-14 AS=1.75e-14
+ PD=5.5e-07 PS=5.5e-07
mXI26_XI1_MM3 XI26_XI1_NET18 N_A_9_XI26_XI1_MM3_g N_GND!_XI26_XI1_MM2_s
+ N_GND!_XI26_XI1_MM0_b NMOS_VTL L=5e-08 W=1e-07 AD=1.75e-14 AS=1.75e-14
+ PD=5.5e-07 PS=5.5e-07
mXI19_XI1_MM3 XI19_XI1_NET18 N_A_8_XI19_XI1_MM3_g N_GND!_XI19_XI1_MM2_s
+ N_GND!_XI19_XI1_MM0_b NMOS_VTL L=5e-08 W=1e-07 AD=1.75e-14 AS=1.75e-14
+ PD=5.5e-07 PS=5.5e-07
mXI22_XI1_MM3 XI22_XI1_NET18 N_A_7_XI22_XI1_MM3_g N_GND!_XI22_XI1_MM2_s
+ N_GND!_XI22_XI1_MM0_b NMOS_VTL L=5e-08 W=1e-07 AD=1.75e-14 AS=1.75e-14
+ PD=5.5e-07 PS=5.5e-07
mXI15_XI1_MM3 XI15_XI1_NET18 N_A_6_XI15_XI1_MM3_g N_GND!_XI15_XI1_MM2_s
+ N_GND!_XI15_XI1_MM0_b NMOS_VTL L=5e-08 W=1e-07 AD=1.75e-14 AS=1.75e-14
+ PD=5.5e-07 PS=5.5e-07
mXI18_XI1_MM3 XI18_XI1_NET18 N_A_5_XI18_XI1_MM3_g N_GND!_XI18_XI1_MM2_s
+ N_GND!_XI18_XI1_MM0_b NMOS_VTL L=5e-08 W=1e-07 AD=1.75e-14 AS=1.75e-14
+ PD=5.5e-07 PS=5.5e-07
mXI11_XI1_MM3 XI11_XI1_NET18 N_A_4_XI11_XI1_MM3_g N_GND!_XI11_XI1_MM2_s
+ N_GND!_XI11_XI1_MM0_b NMOS_VTL L=5e-08 W=1e-07 AD=1.75e-14 AS=1.75e-14
+ PD=5.5e-07 PS=5.5e-07
mXI14_XI1_MM3 XI14_XI1_NET18 N_A_3_XI14_XI1_MM3_g N_GND!_XI14_XI1_MM2_s
+ N_GND!_XI14_XI1_MM0_b NMOS_VTL L=5e-08 W=1e-07 AD=1.75e-14 AS=1.75e-14
+ PD=5.5e-07 PS=5.5e-07
mXI8_XI1_MM3 XI8_XI1_NET18 N_A_2_XI8_XI1_MM3_g N_GND!_XI8_XI1_MM2_s
+ N_GND!_XI8_XI1_MM0_b NMOS_VTL L=5e-08 W=1e-07 AD=1.75e-14 AS=1.75e-14
+ PD=5.5e-07 PS=5.5e-07
mXI9_XI1_MM3 XI9_XI1_NET18 N_A_1_XI9_XI1_MM3_g N_GND!_XI9_XI1_MM2_s
+ N_GND!_XI9_XI1_MM0_b NMOS_VTL L=5e-08 W=1e-07 AD=1.75e-14 AS=1.75e-14
+ PD=5.5e-07 PS=5.5e-07
mXI6_XI1_MM3 XI6_XI1_NET18 N_A_0_XI6_XI1_MM3_g N_GND!_XI6_XI1_MM2_s
+ N_GND!_XI6_XI1_MM0_b NMOS_VTL L=5e-08 W=1e-07 AD=1.75e-14 AS=1.75e-14
+ PD=5.5e-07 PS=5.5e-07
mXI35_XI1_MM4 N_P16_XI35_XI1_MM4_d N_B_15_XI35_XI1_MM4_g XI35_XI1_NET18
+ N_GND!_XI35_XI1_MM0_b NMOS_VTL L=5e-08 W=1e-07 AD=1.5e-14 AS=1.75e-14 PD=5e-07
+ PS=5.5e-07
mXI31_XI1_MM4 N_P15_XI31_XI1_MM4_d N_B_14_XI31_XI1_MM4_g XI31_XI1_NET18
+ N_GND!_XI31_XI1_MM0_b NMOS_VTL L=5e-08 W=1e-07 AD=1.5e-14 AS=1.75e-14 PD=5e-07
+ PS=5.5e-07
mXI34_XI1_MM4 N_P14_XI34_XI1_MM4_d N_B_13_XI34_XI1_MM4_g XI34_XI1_NET18
+ N_GND!_XI34_XI1_MM0_b NMOS_VTL L=5e-08 W=1e-07 AD=1.5e-14 AS=1.75e-14 PD=5e-07
+ PS=5.5e-07
mXI27_XI1_MM4 N_P13_XI27_XI1_MM4_d N_B_12_XI27_XI1_MM4_g XI27_XI1_NET18
+ N_GND!_XI27_XI1_MM0_b NMOS_VTL L=5e-08 W=1e-07 AD=1.5e-14 AS=1.75e-14 PD=5e-07
+ PS=5.5e-07
mXI30_XI1_MM4 N_P12_XI30_XI1_MM4_d N_B_11_XI30_XI1_MM4_g XI30_XI1_NET18
+ N_GND!_XI30_XI1_MM0_b NMOS_VTL L=5e-08 W=1e-07 AD=1.5e-14 AS=1.75e-14 PD=5e-07
+ PS=5.5e-07
mXI23_XI1_MM4 N_P11_XI23_XI1_MM4_d N_B_10_XI23_XI1_MM4_g XI23_XI1_NET18
+ N_GND!_XI23_XI1_MM0_b NMOS_VTL L=5e-08 W=1e-07 AD=1.5e-14 AS=1.75e-14 PD=5e-07
+ PS=5.5e-07
mXI26_XI1_MM4 N_P10_XI26_XI1_MM4_d N_B_9_XI26_XI1_MM4_g XI26_XI1_NET18
+ N_GND!_XI26_XI1_MM0_b NMOS_VTL L=5e-08 W=1e-07 AD=1.5e-14 AS=1.75e-14 PD=5e-07
+ PS=5.5e-07
mXI19_XI1_MM4 N_P9_XI19_XI1_MM4_d N_B_8_XI19_XI1_MM4_g XI19_XI1_NET18
+ N_GND!_XI19_XI1_MM0_b NMOS_VTL L=5e-08 W=1e-07 AD=1.5e-14 AS=1.75e-14 PD=5e-07
+ PS=5.5e-07
mXI22_XI1_MM4 N_P8_XI22_XI1_MM4_d N_B_7_XI22_XI1_MM4_g XI22_XI1_NET18
+ N_GND!_XI22_XI1_MM0_b NMOS_VTL L=5e-08 W=1e-07 AD=1.5e-14 AS=1.75e-14 PD=5e-07
+ PS=5.5e-07
mXI15_XI1_MM4 N_P7_XI15_XI1_MM4_d N_B_6_XI15_XI1_MM4_g XI15_XI1_NET18
+ N_GND!_XI15_XI1_MM0_b NMOS_VTL L=5e-08 W=1e-07 AD=1.5e-14 AS=1.75e-14 PD=5e-07
+ PS=5.5e-07
mXI18_XI1_MM4 N_P6_XI18_XI1_MM4_d N_B_5_XI18_XI1_MM4_g XI18_XI1_NET18
+ N_GND!_XI18_XI1_MM0_b NMOS_VTL L=5e-08 W=1e-07 AD=1.5e-14 AS=1.75e-14 PD=5e-07
+ PS=5.5e-07
mXI11_XI1_MM4 N_P5_XI11_XI1_MM4_d N_B_4_XI11_XI1_MM4_g XI11_XI1_NET18
+ N_GND!_XI11_XI1_MM0_b NMOS_VTL L=5e-08 W=1e-07 AD=1.5e-14 AS=1.75e-14 PD=5e-07
+ PS=5.5e-07
mXI14_XI1_MM4 N_P4_XI14_XI1_MM4_d N_B_3_XI14_XI1_MM4_g XI14_XI1_NET18
+ N_GND!_XI14_XI1_MM0_b NMOS_VTL L=5e-08 W=1e-07 AD=1.5e-14 AS=1.75e-14 PD=5e-07
+ PS=5.5e-07
mXI8_XI1_MM4 N_P3_XI8_XI1_MM4_d N_B_2_XI8_XI1_MM4_g XI8_XI1_NET18
+ N_GND!_XI8_XI1_MM0_b NMOS_VTL L=5e-08 W=1e-07 AD=1.5e-14 AS=1.75e-14 PD=5e-07
+ PS=5.5e-07
mXI9_XI1_MM4 N_P2_XI9_XI1_MM4_d N_B_1_XI9_XI1_MM4_g XI9_XI1_NET18
+ N_GND!_XI9_XI1_MM0_b NMOS_VTL L=5e-08 W=1e-07 AD=1.5e-14 AS=1.75e-14 PD=5e-07
+ PS=5.5e-07
mXI6_XI1_MM4 N_P1_XI6_XI1_MM4_d N_B_0_XI6_XI1_MM4_g XI6_XI1_NET18
+ N_GND!_XI6_XI1_MM0_b NMOS_VTL L=5e-08 W=1e-07 AD=1.5e-14 AS=1.75e-14 PD=5e-07
+ PS=5.5e-07
mXI32_XI0_MM3 XI32_XI0_NET13 N_P14_XI32_XI0_MM3_g N_GND!_XI32_XI0_MM3_s
+ N_GND!_XI31_XI1_MM0_b NMOS_VTL L=5e-08 W=1e-07 AD=1.75e-14 AS=1.5e-14
+ PD=5.5e-07 PS=5e-07
mXI32_XI7_MM2 N_XI32_XI7_NET11_XI32_XI7_MM2_d N_G15_XI32_XI7_MM2_g
+ N_GND!_XI32_XI7_MM2_s N_GND!_XI31_XI0_MM3_b NMOS_VTL L=5e-08 W=1e-07
+ AD=1.75e-14 AS=1.5e-14 PD=5.5e-07 PS=5e-07
mXI33_XI4_MM0 N_XI33_NET5_XI33_XI4_MM0_d N_P14_XI33_XI4_MM0_g
+ N_GND!_XI33_XI4_MM0_s N_GND!_XI34_XI1_MM0_b NMOS_VTL L=5e-08 W=1e-07
+ AD=1.5e-14 AS=1.5e-14 PD=5e-07 PS=5e-07
mXI33_XI5_MM0 N_XI33_NET6_XI33_XI5_MM0_d N_G14_XI33_XI5_MM0_g
+ N_GND!_XI33_XI5_MM0_s N_GND!_XI34_XI0_MM3_b NMOS_VTL L=5e-08 W=1e-07
+ AD=1.5e-14 AS=1.5e-14 PD=5e-07 PS=5e-07
mXI28_XI0_MM3 XI28_XI0_NET13 N_P12_XI28_XI0_MM3_g N_GND!_XI28_XI0_MM3_s
+ N_GND!_XI27_XI1_MM0_b NMOS_VTL L=5e-08 W=1e-07 AD=1.75e-14 AS=1.5e-14
+ PD=5.5e-07 PS=5e-07
mXI28_XI7_MM2 N_XI28_XI7_NET11_XI28_XI7_MM2_d N_G13_XI28_XI7_MM2_g
+ N_GND!_XI28_XI7_MM2_s N_GND!_XI27_XI0_MM3_b NMOS_VTL L=5e-08 W=1e-07
+ AD=1.75e-14 AS=1.5e-14 PD=5.5e-07 PS=5e-07
mXI29_XI4_MM0 N_XI29_NET5_XI29_XI4_MM0_d N_P12_XI29_XI4_MM0_g
+ N_GND!_XI29_XI4_MM0_s N_GND!_XI30_XI1_MM0_b NMOS_VTL L=5e-08 W=1e-07
+ AD=1.5e-14 AS=1.5e-14 PD=5e-07 PS=5e-07
mXI29_XI5_MM0 N_XI29_NET6_XI29_XI5_MM0_d N_G12_XI29_XI5_MM0_g
+ N_GND!_XI29_XI5_MM0_s N_GND!_XI30_XI0_MM3_b NMOS_VTL L=5e-08 W=1e-07
+ AD=1.5e-14 AS=1.5e-14 PD=5e-07 PS=5e-07
mXI24_XI0_MM3 XI24_XI0_NET13 N_P10_XI24_XI0_MM3_g N_GND!_XI24_XI0_MM3_s
+ N_GND!_XI23_XI1_MM0_b NMOS_VTL L=5e-08 W=1e-07 AD=1.75e-14 AS=1.5e-14
+ PD=5.5e-07 PS=5e-07
mXI24_XI7_MM2 N_XI24_XI7_NET11_XI24_XI7_MM2_d N_G11_XI24_XI7_MM2_g
+ N_GND!_XI24_XI7_MM2_s N_GND!_XI23_XI0_MM3_b NMOS_VTL L=5e-08 W=1e-07
+ AD=1.75e-14 AS=1.5e-14 PD=5.5e-07 PS=5e-07
mXI25_XI4_MM0 N_XI25_NET5_XI25_XI4_MM0_d N_P10_XI25_XI4_MM0_g
+ N_GND!_XI25_XI4_MM0_s N_GND!_XI26_XI1_MM0_b NMOS_VTL L=5e-08 W=1e-07
+ AD=1.5e-14 AS=1.5e-14 PD=5e-07 PS=5e-07
mXI25_XI5_MM0 N_XI25_NET6_XI25_XI5_MM0_d N_G10_XI25_XI5_MM0_g
+ N_GND!_XI25_XI5_MM0_s N_GND!_XI26_XI0_MM3_b NMOS_VTL L=5e-08 W=1e-07
+ AD=1.5e-14 AS=1.5e-14 PD=5e-07 PS=5e-07
mXI20_XI0_MM3 XI20_XI0_NET13 N_P8_XI20_XI0_MM3_g N_GND!_XI20_XI0_MM3_s
+ N_GND!_XI19_XI1_MM0_b NMOS_VTL L=5e-08 W=1e-07 AD=1.75e-14 AS=1.5e-14
+ PD=5.5e-07 PS=5e-07
mXI20_XI7_MM2 N_XI20_XI7_NET11_XI20_XI7_MM2_d N_G9_XI20_XI7_MM2_g
+ N_GND!_XI20_XI7_MM2_s N_GND!_XI19_XI0_MM3_b NMOS_VTL L=5e-08 W=1e-07
+ AD=1.75e-14 AS=1.5e-14 PD=5.5e-07 PS=5e-07
mXI21_XI4_MM0 N_XI21_NET5_XI21_XI4_MM0_d N_P8_XI21_XI4_MM0_g
+ N_GND!_XI21_XI4_MM0_s N_GND!_XI22_XI1_MM0_b NMOS_VTL L=5e-08 W=1e-07
+ AD=1.5e-14 AS=1.5e-14 PD=5e-07 PS=5e-07
mXI21_XI5_MM0 N_XI21_NET6_XI21_XI5_MM0_d N_G8_XI21_XI5_MM0_g
+ N_GND!_XI21_XI5_MM0_s N_GND!_XI22_XI0_MM3_b NMOS_VTL L=5e-08 W=1e-07
+ AD=1.5e-14 AS=1.5e-14 PD=5e-07 PS=5e-07
mXI16_XI0_MM3 XI16_XI0_NET13 N_P6_XI16_XI0_MM3_g N_GND!_XI16_XI0_MM3_s
+ N_GND!_XI15_XI1_MM0_b NMOS_VTL L=5e-08 W=1e-07 AD=1.75e-14 AS=1.5e-14
+ PD=5.5e-07 PS=5e-07
mXI16_XI7_MM2 N_XI16_XI7_NET11_XI16_XI7_MM2_d N_G7_XI16_XI7_MM2_g
+ N_GND!_XI16_XI7_MM2_s N_GND!_XI15_XI0_MM3_b NMOS_VTL L=5e-08 W=1e-07
+ AD=1.75e-14 AS=1.5e-14 PD=5.5e-07 PS=5e-07
mXI17_XI4_MM0 N_XI17_NET5_XI17_XI4_MM0_d N_P6_XI17_XI4_MM0_g
+ N_GND!_XI17_XI4_MM0_s N_GND!_XI18_XI1_MM0_b NMOS_VTL L=5e-08 W=1e-07
+ AD=1.5e-14 AS=1.5e-14 PD=5e-07 PS=5e-07
mXI17_XI5_MM0 N_XI17_NET6_XI17_XI5_MM0_d N_G6_XI17_XI5_MM0_g
+ N_GND!_XI17_XI5_MM0_s N_GND!_XI18_XI0_MM3_b NMOS_VTL L=5e-08 W=1e-07
+ AD=1.5e-14 AS=1.5e-14 PD=5e-07 PS=5e-07
mXI12_XI0_MM3 XI12_XI0_NET13 N_P4_XI12_XI0_MM3_g N_GND!_XI12_XI0_MM3_s
+ N_GND!_XI11_XI1_MM0_b NMOS_VTL L=5e-08 W=1e-07 AD=1.75e-14 AS=1.5e-14
+ PD=5.5e-07 PS=5e-07
mXI12_XI7_MM2 N_XI12_XI7_NET11_XI12_XI7_MM2_d N_G5_XI12_XI7_MM2_g
+ N_GND!_XI12_XI7_MM2_s N_GND!_XI11_XI0_MM3_b NMOS_VTL L=5e-08 W=1e-07
+ AD=1.75e-14 AS=1.5e-14 PD=5.5e-07 PS=5e-07
mXI13_XI4_MM0 N_XI13_NET5_XI13_XI4_MM0_d N_P4_XI13_XI4_MM0_g
+ N_GND!_XI13_XI4_MM0_s N_GND!_XI14_XI1_MM0_b NMOS_VTL L=5e-08 W=1e-07
+ AD=1.5e-14 AS=1.5e-14 PD=5e-07 PS=5e-07
mXI13_XI5_MM0 N_XI13_NET6_XI13_XI5_MM0_d N_G4_XI13_XI5_MM0_g
+ N_GND!_XI13_XI5_MM0_s N_GND!_XI14_XI0_MM3_b NMOS_VTL L=5e-08 W=1e-07
+ AD=1.5e-14 AS=1.5e-14 PD=5e-07 PS=5e-07
mXI7_XI0_MM3 XI7_XI0_NET13 N_P2_XI7_XI0_MM3_g N_GND!_XI7_XI0_MM3_s
+ N_GND!_XI8_XI1_MM0_b NMOS_VTL L=5e-08 W=1e-07 AD=1.75e-14 AS=1.5e-14
+ PD=5.5e-07 PS=5e-07
mXI7_XI7_MM2 N_XI7_XI7_NET11_XI7_XI7_MM2_d N_G3_XI7_XI7_MM2_g
+ N_GND!_XI7_XI7_MM2_s N_GND!_XI8_XI0_MM3_b NMOS_VTL L=5e-08 W=1e-07 AD=1.75e-14
+ AS=1.5e-14 PD=5.5e-07 PS=5e-07
mXI10_XI4_MM0 N_XI10_NET5_XI10_XI4_MM0_d N_P2_XI10_XI4_MM0_g
+ N_GND!_XI10_XI4_MM0_s N_GND!_XI9_XI1_MM0_b NMOS_VTL L=5e-08 W=1e-07 AD=1.5e-14
+ AS=1.5e-14 PD=5e-07 PS=5e-07
mXI10_XI5_MM0 N_XI10_NET6_XI10_XI5_MM0_d N_G2_XI10_XI5_MM0_g
+ N_GND!_XI10_XI5_MM0_s N_GND!_XI9_XI0_MM3_b NMOS_VTL L=5e-08 W=1e-07 AD=1.5e-14
+ AS=1.5e-14 PD=5e-07 PS=5e-07
mXI1_XI5_MM2 N_XI1_XI5_NET11_XI1_XI5_MM2_d N_G1_XI1_XI5_MM2_g
+ N_GND!_XI1_XI5_MM2_s N_GND!_XI6_XI0_MM3_b NMOS_VTL L=5e-08 W=1e-07 AD=1.75e-14
+ AS=1.5e-14 PD=5.5e-07 PS=5e-07
mXI32_XI0_MM2 N_XI32_NET16_XI32_XI0_MM2_d N_P15_XI32_XI0_MM2_g XI32_XI0_NET13
+ N_GND!_XI31_XI1_MM0_b NMOS_VTL L=5e-08 W=1e-07 AD=1.5e-14 AS=1.75e-14 PD=5e-07
+ PS=5.5e-07
mXI32_XI7_MM0 N_XI32_XI7_NET11_XI32_XI7_MM2_d N_P15_XI32_XI7_MM0_g
+ XI32_XI7_NET22 N_GND!_XI31_XI0_MM3_b NMOS_VTL L=5e-08 W=1e-07 AD=1.75e-14
+ AS=1.75e-14 PD=5.5e-07 PS=5.5e-07
mXI28_XI0_MM2 N_XI28_NET16_XI28_XI0_MM2_d N_P13_XI28_XI0_MM2_g XI28_XI0_NET13
+ N_GND!_XI27_XI1_MM0_b NMOS_VTL L=5e-08 W=1e-07 AD=1.5e-14 AS=1.75e-14 PD=5e-07
+ PS=5.5e-07
mXI28_XI7_MM0 N_XI28_XI7_NET11_XI28_XI7_MM2_d N_P13_XI28_XI7_MM0_g
+ XI28_XI7_NET22 N_GND!_XI27_XI0_MM3_b NMOS_VTL L=5e-08 W=1e-07 AD=1.75e-14
+ AS=1.75e-14 PD=5.5e-07 PS=5.5e-07
mXI24_XI0_MM2 N_XI24_NET16_XI24_XI0_MM2_d N_P11_XI24_XI0_MM2_g XI24_XI0_NET13
+ N_GND!_XI23_XI1_MM0_b NMOS_VTL L=5e-08 W=1e-07 AD=1.5e-14 AS=1.75e-14 PD=5e-07
+ PS=5.5e-07
mXI24_XI7_MM0 N_XI24_XI7_NET11_XI24_XI7_MM2_d N_P11_XI24_XI7_MM0_g
+ XI24_XI7_NET22 N_GND!_XI23_XI0_MM3_b NMOS_VTL L=5e-08 W=1e-07 AD=1.75e-14
+ AS=1.75e-14 PD=5.5e-07 PS=5.5e-07
mXI20_XI0_MM2 N_XI20_NET16_XI20_XI0_MM2_d N_P9_XI20_XI0_MM2_g XI20_XI0_NET13
+ N_GND!_XI19_XI1_MM0_b NMOS_VTL L=5e-08 W=1e-07 AD=1.5e-14 AS=1.75e-14 PD=5e-07
+ PS=5.5e-07
mXI20_XI7_MM0 N_XI20_XI7_NET11_XI20_XI7_MM2_d N_P9_XI20_XI7_MM0_g XI20_XI7_NET22
+ N_GND!_XI19_XI0_MM3_b NMOS_VTL L=5e-08 W=1e-07 AD=1.75e-14 AS=1.75e-14
+ PD=5.5e-07 PS=5.5e-07
mXI16_XI0_MM2 N_XI16_NET16_XI16_XI0_MM2_d N_P7_XI16_XI0_MM2_g XI16_XI0_NET13
+ N_GND!_XI15_XI1_MM0_b NMOS_VTL L=5e-08 W=1e-07 AD=1.5e-14 AS=1.75e-14 PD=5e-07
+ PS=5.5e-07
mXI16_XI7_MM0 N_XI16_XI7_NET11_XI16_XI7_MM2_d N_P7_XI16_XI7_MM0_g XI16_XI7_NET22
+ N_GND!_XI15_XI0_MM3_b NMOS_VTL L=5e-08 W=1e-07 AD=1.75e-14 AS=1.75e-14
+ PD=5.5e-07 PS=5.5e-07
mXI12_XI0_MM2 N_XI12_NET16_XI12_XI0_MM2_d N_P5_XI12_XI0_MM2_g XI12_XI0_NET13