* SPICE NETLIST
***************************************

.SUBCKT adder A_15 A_14 A_13 A_12 A_11 A_10 A_9 A_8 A_7 A_6 A_5 A_4 A_3 A_2 A_1 A_0 B_15 B_14 B_13 B_12
+ B_11 B_10 B_9 B_8 B_7 B_6 B_5 B_4 B_3 B_2 B_1 B_0 GND! S_0 Cout VDD! S_15 S_14 S_13 S_12
+ S_11 S_10 S_9 S_8 S_7 S_6 S_5 S_4 S_3 S_2 S_1
** N=476 EP=51 IP=0 FDC=884
M0 119 A_15 GND! GND! NMOS_VTL L=5e-08 W=1e-07 AD=1.75e-14 AS=1.5e-14 PD=5.5e-07 PS=5e-07 $X=450 $Y=-8250 $D=1
M1 380 A_15 GND! GND! NMOS_VTL L=5e-08 W=1e-07 AD=1.75e-14 AS=1.5e-14 PD=5.5e-07 PS=5e-07 $X=450 $Y=-3800 $D=1
M2 121 A_14 GND! GND! NMOS_VTL L=5e-08 W=1e-07 AD=1.75e-14 AS=1.5e-14 PD=5.5e-07 PS=5e-07 $X=450 $Y=650 $D=1
M3 381 A_14 GND! GND! NMOS_VTL L=5e-08 W=1e-07 AD=1.75e-14 AS=1.5e-14 PD=5.5e-07 PS=5e-07 $X=450 $Y=5100 $D=1
M4 123 A_13 GND! GND! NMOS_VTL L=5e-08 W=1e-07 AD=1.75e-14 AS=1.5e-14 PD=5.5e-07 PS=5e-07 $X=450 $Y=9550 $D=1
M5 382 A_13 GND! GND! NMOS_VTL L=5e-08 W=1e-07 AD=1.75e-14 AS=1.5e-14 PD=5.5e-07 PS=5e-07 $X=450 $Y=14000 $D=1
M6 125 A_12 GND! GND! NMOS_VTL L=5e-08 W=1e-07 AD=1.75e-14 AS=1.5e-14 PD=5.5e-07 PS=5e-07 $X=450 $Y=18450 $D=1
M7 383 A_12 GND! GND! NMOS_VTL L=5e-08 W=1e-07 AD=1.75e-14 AS=1.5e-14 PD=5.5e-07 PS=5e-07 $X=450 $Y=22900 $D=1
M8 127 A_11 GND! GND! NMOS_VTL L=5e-08 W=1e-07 AD=1.75e-14 AS=1.5e-14 PD=5.5e-07 PS=5e-07 $X=450 $Y=27350 $D=1
M9 384 A_11 GND! GND! NMOS_VTL L=5e-08 W=1e-07 AD=1.75e-14 AS=1.5e-14 PD=5.5e-07 PS=5e-07 $X=450 $Y=31800 $D=1
M10 129 A_10 GND! GND! NMOS_VTL L=5e-08 W=1e-07 AD=1.75e-14 AS=1.5e-14 PD=5.5e-07 PS=5e-07 $X=450 $Y=36250 $D=1
M11 385 A_10 GND! GND! NMOS_VTL L=5e-08 W=1e-07 AD=1.75e-14 AS=1.5e-14 PD=5.5e-07 PS=5e-07 $X=450 $Y=40700 $D=1
M12 131 A_9 GND! GND! NMOS_VTL L=5e-08 W=1e-07 AD=1.75e-14 AS=1.5e-14 PD=5.5e-07 PS=5e-07 $X=450 $Y=45150 $D=1
M13 386 A_9 GND! GND! NMOS_VTL L=5e-08 W=1e-07 AD=1.75e-14 AS=1.5e-14 PD=5.5e-07 PS=5e-07 $X=450 $Y=49600 $D=1
M14 133 A_8 GND! GND! NMOS_VTL L=5e-08 W=1e-07 AD=1.75e-14 AS=1.5e-14 PD=5.5e-07 PS=5e-07 $X=450 $Y=54050 $D=1
M15 387 A_8 GND! GND! NMOS_VTL L=5e-08 W=1e-07 AD=1.75e-14 AS=1.5e-14 PD=5.5e-07 PS=5e-07 $X=450 $Y=58500 $D=1
M16 135 A_7 GND! GND! NMOS_VTL L=5e-08 W=1e-07 AD=1.75e-14 AS=1.5e-14 PD=5.5e-07 PS=5e-07 $X=450 $Y=62950 $D=1
M17 388 A_7 GND! GND! NMOS_VTL L=5e-08 W=1e-07 AD=1.75e-14 AS=1.5e-14 PD=5.5e-07 PS=5e-07 $X=450 $Y=67400 $D=1
M18 137 A_6 GND! GND! NMOS_VTL L=5e-08 W=1e-07 AD=1.75e-14 AS=1.5e-14 PD=5.5e-07 PS=5e-07 $X=450 $Y=71850 $D=1
M19 389 A_6 GND! GND! NMOS_VTL L=5e-08 W=1e-07 AD=1.75e-14 AS=1.5e-14 PD=5.5e-07 PS=5e-07 $X=450 $Y=76300 $D=1
M20 139 A_5 GND! GND! NMOS_VTL L=5e-08 W=1e-07 AD=1.75e-14 AS=1.5e-14 PD=5.5e-07 PS=5e-07 $X=450 $Y=80750 $D=1
M21 390 A_5 GND! GND! NMOS_VTL L=5e-08 W=1e-07 AD=1.75e-14 AS=1.5e-14 PD=5.5e-07 PS=5e-07 $X=450 $Y=85200 $D=1
M22 141 A_4 GND! GND! NMOS_VTL L=5e-08 W=1e-07 AD=1.75e-14 AS=1.5e-14 PD=5.5e-07 PS=5e-07 $X=450 $Y=89650 $D=1
M23 391 A_4 GND! GND! NMOS_VTL L=5e-08 W=1e-07 AD=1.75e-14 AS=1.5e-14 PD=5.5e-07 PS=5e-07 $X=450 $Y=94100 $D=1
M24 143 A_3 GND! GND! NMOS_VTL L=5e-08 W=1e-07 AD=1.75e-14 AS=1.5e-14 PD=5.5e-07 PS=5e-07 $X=450 $Y=98550 $D=1
M25 392 A_3 GND! GND! NMOS_VTL L=5e-08 W=1e-07 AD=1.75e-14 AS=1.5e-14 PD=5.5e-07 PS=5e-07 $X=450 $Y=103000 $D=1
M26 145 A_2 GND! GND! NMOS_VTL L=5e-08 W=1e-07 AD=1.75e-14 AS=1.5e-14 PD=5.5e-07 PS=5e-07 $X=450 $Y=107450 $D=1
M27 393 A_2 GND! GND! NMOS_VTL L=5e-08 W=1e-07 AD=1.75e-14 AS=1.5e-14 PD=5.5e-07 PS=5e-07 $X=450 $Y=111900 $D=1
M28 147 A_1 GND! GND! NMOS_VTL L=5e-08 W=1e-07 AD=1.75e-14 AS=1.5e-14 PD=5.5e-07 PS=5e-07 $X=450 $Y=116350 $D=1
M29 394 A_1 GND! GND! NMOS_VTL L=5e-08 W=1e-07 AD=1.75e-14 AS=1.5e-14 PD=5.5e-07 PS=5e-07 $X=450 $Y=120800 $D=1
M30 149 A_0 GND! GND! NMOS_VTL L=5e-08 W=1e-07 AD=1.75e-14 AS=1.5e-14 PD=5.5e-07 PS=5e-07 $X=450 $Y=125250 $D=1
M31 395 A_0 GND! GND! NMOS_VTL L=5e-08 W=1e-07 AD=1.75e-14 AS=1.5e-14 PD=5.5e-07 PS=5e-07 $X=450 $Y=129700 $D=1
M32 GND! B_15 119 GND! NMOS_VTL L=5e-08 W=1e-07 AD=1.5e-14 AS=1.75e-14 PD=5e-07 PS=5.5e-07 $X=900 $Y=-8250 $D=1
M33 120 B_15 380 GND! NMOS_VTL L=5e-08 W=1e-07 AD=1.5e-14 AS=1.75e-14 PD=5e-07 PS=5.5e-07 $X=900 $Y=-3800 $D=1
M34 GND! B_14 121 GND! NMOS_VTL L=5e-08 W=1e-07 AD=1.5e-14 AS=1.75e-14 PD=5e-07 PS=5.5e-07 $X=900 $Y=650 $D=1
M35 122 B_14 381 GND! NMOS_VTL L=5e-08 W=1e-07 AD=1.5e-14 AS=1.75e-14 PD=5e-07 PS=5.5e-07 $X=900 $Y=5100 $D=1
M36 GND! B_13 123 GND! NMOS_VTL L=5e-08 W=1e-07 AD=1.5e-14 AS=1.75e-14 PD=5e-07 PS=5.5e-07 $X=900 $Y=9550 $D=1
M37 124 B_13 382 GND! NMOS_VTL L=5e-08 W=1e-07 AD=1.5e-14 AS=1.75e-14 PD=5e-07 PS=5.5e-07 $X=900 $Y=14000 $D=1
M38 GND! B_12 125 GND! NMOS_VTL L=5e-08 W=1e-07 AD=1.5e-14 AS=1.75e-14 PD=5e-07 PS=5.5e-07 $X=900 $Y=18450 $D=1
M39 126 B_12 383 GND! NMOS_VTL L=5e-08 W=1e-07 AD=1.5e-14 AS=1.75e-14 PD=5e-07 PS=5.5e-07 $X=900 $Y=22900 $D=1
M40 GND! B_11 127 GND! NMOS_VTL L=5e-08 W=1e-07 AD=1.5e-14 AS=1.75e-14 PD=5e-07 PS=5.5e-07 $X=900 $Y=27350 $D=1
M41 128 B_11 384 GND! NMOS_VTL L=5e-08 W=1e-07 AD=1.5e-14 AS=1.75e-14 PD=5e-07 PS=5.5e-07 $X=900 $Y=31800 $D=1
M42 GND! B_10 129 GND! NMOS_VTL L=5e-08 W=1e-07 AD=1.5e-14 AS=1.75e-14 PD=5e-07 PS=5.5e-07 $X=900 $Y=36250 $D=1
M43 130 B_10 385 GND! NMOS_VTL L=5e-08 W=1e-07 AD=1.5e-14 AS=1.75e-14 PD=5e-07 PS=5.5e-07 $X=900 $Y=40700 $D=1
M44 GND! B_9 131 GND! NMOS_VTL L=5e-08 W=1e-07 AD=1.5e-14 AS=1.75e-14 PD=5e-07 PS=5.5e-07 $X=900 $Y=45150 $D=1
M45 132 B_9 386 GND! NMOS_VTL L=5e-08 W=1e-07 AD=1.5e-14 AS=1.75e-14 PD=5e-07 PS=5.5e-07 $X=900 $Y=49600 $D=1
M46 GND! B_8 133 GND! NMOS_VTL L=5e-08 W=1e-07 AD=1.5e-14 AS=1.75e-14 PD=5e-07 PS=5.5e-07 $X=900 $Y=54050 $D=1
M47 134 B_8 387 GND! NMOS_VTL L=5e-08 W=1e-07 AD=1.5e-14 AS=1.75e-14 PD=5e-07 PS=5.5e-07 $X=900 $Y=58500 $D=1
M48 GND! B_7 135 GND! NMOS_VTL L=5e-08 W=1e-07 AD=1.5e-14 AS=1.75e-14 PD=5e-07 PS=5.5e-07 $X=900 $Y=62950 $D=1
M49 136 B_7 388 GND! NMOS_VTL L=5e-08 W=1e-07 AD=1.5e-14 AS=1.75e-14 PD=5e-07 PS=5.5e-07 $X=900 $Y=67400 $D=1
M50 GND! B_6 137 GND! NMOS_VTL L=5e-08 W=1e-07 AD=1.5e-14 AS=1.75e-14 PD=5e-07 PS=5.5e-07 $X=900 $Y=71850 $D=1
M51 138 B_6 389 GND! NMOS_VTL L=5e-08 W=1e-07 AD=1.5e-14 AS=1.75e-14 PD=5e-07 PS=5.5e-07 $X=900 $Y=76300 $D=1
M52 GND! B_5 139 GND! NMOS_VTL L=5e-08 W=1e-07 AD=1.5e-14 AS=1.75e-14 PD=5e-07 PS=5.5e-07 $X=900 $Y=80750 $D=1
M53 140 B_5 390 GND! NMOS_VTL L=5e-08 W=1e-07 AD=1.5e-14 AS=1.75e-14 PD=5e-07 PS=5.5e-07 $X=900 $Y=85200 $D=1
M54 GND! B_4 141 GND! NMOS_VTL L=5e-08 W=1e-07 AD=1.5e-14 AS=1.75e-14 PD=5e-07 PS=5.5e-07 $X=900 $Y=89650 $D=1
M55 142 B_4 391 GND! NMOS_VTL L=5e-08 W=1e-07 AD=1.5e-14 AS=1.75e-14 PD=5e-07 PS=5.5e-07 $X=900 $Y=94100 $D=1
M56 GND! B_3 143 GND! NMOS_VTL L=5e-08 W=1e-07 AD=1.5e-14 AS=1.75e-14 PD=5e-07 PS=5.5e-07 $X=900 $Y=98550 $D=1
M57 144 B_3 392 GND! NMOS_VTL L=5e-08 W=1e-07 AD=1.5e-14 AS=1.75e-14 PD=5e-07 PS=5.5e-07 $X=900 $Y=103000 $D=1
M58 GND! B_2 145 GND! NMOS_VTL L=5e-08 W=1e-07 AD=1.5e-14 AS=1.75e-14 PD=5e-07 PS=5.5e-07 $X=900 $Y=107450 $D=1
M59 146 B_2 393 GND! NMOS_VTL L=5e-08 W=1e-07 AD=1.5e-14 AS=1.75e-14 PD=5e-07 PS=5.5e-07 $X=900 $Y=111900 $D=1
M60 GND! B_1 147 GND! NMOS_VTL L=5e-08 W=1e-07 AD=1.5e-14 AS=1.75e-14 PD=5e-07 PS=5.5e-07 $X=900 $Y=116350 $D=1
M61 148 B_1 394 GND! NMOS_VTL L=5e-08 W=1e-07 AD=1.5e-14 AS=1.75e-14 PD=5e-07 PS=5.5e-07 $X=900 $Y=120800 $D=1
M62 GND! B_0 149 GND! NMOS_VTL L=5e-08 W=1e-07 AD=1.5e-14 AS=1.75e-14 PD=5e-07 PS=5.5e-07 $X=900 $Y=125250 $D=1
M63 150 B_0 395 GND! NMOS_VTL L=5e-08 W=1e-07 AD=1.5e-14 AS=1.75e-14 PD=5e-07 PS=5.5e-07 $X=900 $Y=129700 $D=1
M64 GND! 119 41 GND! NMOS_VTL L=5e-08 W=1e-07 AD=1.75e-14 AS=1.5e-14 PD=5.5e-07 PS=5e-07 $X=1800 $Y=-8250 $D=1
M65 GND! 121 33 GND! NMOS_VTL L=5e-08 W=1e-07 AD=1.75e-14 AS=1.5e-14 PD=5.5e-07 PS=5e-07 $X=1800 $Y=650 $D=1
M66 GND! 123 34 GND! NMOS_VTL L=5e-08 W=1e-07 AD=1.75e-14 AS=1.5e-14 PD=5.5e-07 PS=5e-07 $X=1800 $Y=9550 $D=1
M67 GND! 125 35 GND! NMOS_VTL L=5e-08 W=1e-07 AD=1.75e-14 AS=1.5e-14 PD=5.5e-07 PS=5e-07 $X=1800 $Y=18450 $D=1
M68 GND! 127 42 GND! NMOS_VTL L=5e-08 W=1e-07 AD=1.75e-14 AS=1.5e-14 PD=5.5e-07 PS=5e-07 $X=1800 $Y=27350 $D=1
M69 GND! 129 36 GND! NMOS_VTL L=5e-08 W=1e-07 AD=1.75e-14 AS=1.5e-14 PD=5.5e-07 PS=5e-07 $X=1800 $Y=36250 $D=1
M70 GND! 131 43 GND! NMOS_VTL L=5e-08 W=1e-07 AD=1.75e-14 AS=1.5e-14 PD=5.5e-07 PS=5e-07 $X=1800 $Y=45150 $D=1
M71 GND! 133 37 GND! NMOS_VTL L=5e-08 W=1e-07 AD=1.75e-14 AS=1.5e-14 PD=5.5e-07 PS=5e-07 $X=1800 $Y=54050 $D=1
M72 GND! 135 44 GND! NMOS_VTL L=5e-08 W=1e-07 AD=1.75e-14 AS=1.5e-14 PD=5.5e-07 PS=5e-07 $X=1800 $Y=62950 $D=1
M73 GND! 137 38 GND! NMOS_VTL L=5e-08 W=1e-07 AD=1.75e-14 AS=1.5e-14 PD=5.5e-07 PS=5e-07 $X=1800 $Y=71850 $D=1
M74 GND! 139 45 GND! NMOS_VTL L=5e-08 W=1e-07 AD=1.75e-14 AS=1.5e-14 PD=5.5e-07 PS=5e-07 $X=1800 $Y=80750 $D=1
M75 GND! 141 39 GND! NMOS_VTL L=5e-08 W=1e-07 AD=1.75e-14 AS=1.5e-14 PD=5.5e-07 PS=5e-07 $X=1800 $Y=89650 $D=1
M76 GND! 143 46 GND! NMOS_VTL L=5e-08 W=1e-07 AD=1.75e-14 AS=1.5e-14 PD=5.5e-07 PS=5e-07 $X=1800 $Y=98550 $D=1
M77 GND! 145 40 GND! NMOS_VTL L=5e-08 W=1e-07 AD=1.75e-14 AS=1.5e-14 PD=5.5e-07 PS=5e-07 $X=1800 $Y=107450 $D=1
M78 GND! 147 47 GND! NMOS_VTL L=5e-08 W=1e-07 AD=1.75e-14 AS=1.5e-14 PD=5.5e-07 PS=5e-07 $X=1800 $Y=116350 $D=1
M79 GND! 149 55 GND! NMOS_VTL L=5e-08 W=1e-07 AD=1.75e-14 AS=1.5e-14 PD=5.5e-07 PS=5e-07 $X=1800 $Y=125250 $D=1
M80 151 120 GND! GND! NMOS_VTL L=5e-08 W=1e-07 AD=1.5e-14 AS=1.5e-14 PD=5e-07 PS=5e-07 $X=1900 $Y=-3800 $D=1
M81 152 122 GND! GND! NMOS_VTL L=5e-08 W=1e-07 AD=1.5e-14 AS=1.5e-14 PD=5e-07 PS=5e-07 $X=1900 $Y=5100 $D=1
M82 48 124 GND! GND! NMOS_VTL L=5e-08 W=1e-07 AD=1.5e-14 AS=1.5e-14 PD=5e-07 PS=5e-07 $X=1900 $Y=14000 $D=1
M83 153 126 GND! GND! NMOS_VTL L=5e-08 W=1e-07 AD=1.5e-14 AS=1.5e-14 PD=5e-07 PS=5e-07 $X=1900 $Y=22900 $D=1
M84 49 128 GND! GND! NMOS_VTL L=5e-08 W=1e-07 AD=1.5e-14 AS=1.5e-14 PD=5e-07 PS=5e-07 $X=1900 $Y=31800 $D=1
M85 154 130 GND! GND! NMOS_VTL L=5e-08 W=1e-07 AD=1.5e-14 AS=1.5e-14 PD=5e-07 PS=5e-07 $X=1900 $Y=40700 $D=1
M86 50 132 GND! GND! NMOS_VTL L=5e-08 W=1e-07 AD=1.5e-14 AS=1.5e-14 PD=5e-07 PS=5e-07 $X=1900 $Y=49600 $D=1
M87 155 134 GND! GND! NMOS_VTL L=5e-08 W=1e-07 AD=1.5e-14 AS=1.5e-14 PD=5e-07 PS=5e-07 $X=1900 $Y=58500 $D=1
M88 51 136 GND! GND! NMOS_VTL L=5e-08 W=1e-07 AD=1.5e-14 AS=1.5e-14 PD=5e-07 PS=5e-07 $X=1900 $Y=67400 $D=1
M89 156 138 GND! GND! NMOS_VTL L=5e-08 W=1e-07 AD=1.5e-14 AS=1.5e-14 PD=5e-07 PS=5e-07 $X=1900 $Y=76300 $D=1
M90 52 140 GND! GND! NMOS_VTL L=5e-08 W=1e-07 AD=1.5e-14 AS=1.5e-14 PD=5e-07 PS=5e-07 $X=1900 $Y=85200 $D=1
M91 157 142 GND! GND! NMOS_VTL L=5e-08 W=1e-07 AD=1.5e-14 AS=1.5e-14 PD=5e-07 PS=5e-07 $X=1900 $Y=94100 $D=1
M92 53 144 GND! GND! NMOS_VTL L=5e-08 W=1e-07 AD=1.5e-14 AS=1.5e-14 PD=5e-07 PS=5e-07 $X=1900 $Y=103000 $D=1
M93 158 146 GND! GND! NMOS_VTL L=5e-08 W=1e-07 AD=1.5e-14 AS=1.5e-14 PD=5e-07 PS=5e-07 $X=1900 $Y=111900 $D=1
M94 54 148 GND! GND! NMOS_VTL L=5e-08 W=1e-07 AD=1.5e-14 AS=1.5e-14 PD=5e-07 PS=5e-07 $X=1900 $Y=120800 $D=1
M95 159 150 GND! GND! NMOS_VTL L=5e-08 W=1e-07 AD=1.5e-14 AS=1.5e-14 PD=5e-07 PS=5e-07 $X=1900 $Y=129700 $D=1
M96 396 A_15 GND! GND! NMOS_VTL L=5e-08 W=1e-07 AD=1.75e-14 AS=1.75e-14 PD=5.5e-07 PS=5.5e-07 $X=2250 $Y=-8250 $D=1
M97 397 A_14 GND! GND! NMOS_VTL L=5e-08 W=1e-07 AD=1.75e-14 AS=1.75e-14 PD=5.5e-07 PS=5.5e-07 $X=2250 $Y=650 $D=1
M98 398 A_13 GND! GND! NMOS_VTL L=5e-08 W=1e-07 AD=1.75e-14 AS=1.75e-14 PD=5.5e-07 PS=5.5e-07 $X=2250 $Y=9550 $D=1
M99 399 A_12 GND! GND! NMOS_VTL L=5e-08 W=1e-07 AD=1.75e-14 AS=1.75e-14 PD=5.5e-07 PS=5.5e-07 $X=2250 $Y=18450 $D=1
M100 400 A_11 GND! GND! NMOS_VTL L=5e-08 W=1e-07 AD=1.75e-14 AS=1.75e-14 PD=5.5e-07 PS=5.5e-07 $X=2250 $Y=27350 $D=1
M101 401 A_10 GND! GND! NMOS_VTL L=5e-08 W=1e-07 AD=1.75e-14 AS=1.75e-14 PD=5.5e-07 PS=5.5e-07 $X=2250 $Y=36250 $D=1
M102 402 A_9 GND! GND! NMOS_VTL L=5e-08 W=1e-07 AD=1.75e-14 AS=1.75e-14 PD=5.5e-07 PS=5.5e-07 $X=2250 $Y=45150 $D=1
M103 403 A_8 GND! GND! NMOS_VTL L=5e-08 W=1e-07 AD=1.75e-14 AS=1.75e-14 PD=5.5e-07 PS=5.5e-07 $X=2250 $Y=54050 $D=1
M104 404 A_7 GND! GND! NMOS_VTL L=5e-08 W=1e-07 AD=1.75e-14 AS=1.75e-14 PD=5.5e-07 PS=5.5e-07 $X=2250 $Y=62950 $D=1
M105 405 A_6 GND! GND! NMOS_VTL L=5e-08 W=1e-07 AD=1.75e-14 AS=1.75e-14 PD=5.5e-07 PS=5.5e-07 $X=2250 $Y=71850 $D=1
M106 406 A_5 GND! GND! NMOS_VTL L=5e-08 W=1e-07 AD=1.75e-14 AS=1.75e-14 PD=5.5e-07 PS=5.5e-07 $X=2250 $Y=80750 $D=1
M107 407 A_4 GND! GND! NMOS_VTL L=5e-08 W=1e-07 AD=1.75e-14 AS=1.75e-14 PD=5.5e-07 PS=5.5e-07 $X=2250 $Y=89650 $D=1
M108 408 A_3 GND! GND! NMOS_VTL L=5e-08 W=1e-07 AD=1.75e-14 AS=1.75e-14 PD=5.5e-07 PS=5.5e-07 $X=2250 $Y=98550 $D=1
M109 409 A_2 GND! GND! NMOS_VTL L=5e-08 W=1e-07 AD=1.75e-14 AS=1.75e-14 PD=5.5e-07 PS=5.5e-07 $X=2250 $Y=107450 $D=1
M110 410 A_1 GND! GND! NMOS_VTL L=5e-08 W=1e-07 AD=1.75e-14 AS=1.75e-14 PD=5.5e-07 PS=5.5e-07 $X=2250 $Y=116350 $D=1
M111 411 A_0 GND! GND! NMOS_VTL L=5e-08 W=1e-07 AD=1.75e-14 AS=1.75e-14 PD=5.5e-07 PS=5.5e-07 $X=2250 $Y=125250 $D=1
M112 41 B_15 396 GND! NMOS_VTL L=5e-08 W=1e-07 AD=1.5e-14 AS=1.75e-14 PD=5e-07 PS=5.5e-07 $X=2700 $Y=-8250 $D=1
M113 33 B_14 397 GND! NMOS_VTL L=5e-08 W=1e-07 AD=1.5e-14 AS=1.75e-14 PD=5e-07 PS=5.5e-07 $X=2700 $Y=650 $D=1
M114 34 B_13 398 GND! NMOS_VTL L=5e-08 W=1e-07 AD=1.5e-14 AS=1.75e-14 PD=5e-07 PS=5.5e-07 $X=2700 $Y=9550 $D=1
M115 35 B_12 399 GND! NMOS_VTL L=5e-08 W=1e-07 AD=1.5e-14 AS=1.75e-14 PD=5e-07 PS=5.5e-07 $X=2700 $Y=18450 $D=1
M116 42 B_11 400 GND! NMOS_VTL L=5e-08 W=1e-07 AD=1.5e-14 AS=1.75e-14 PD=5e-07 PS=5.5e-07 $X=2700 $Y=27350 $D=1
M117 36 B_10 401 GND! NMOS_VTL L=5e-08 W=1e-07 AD=1.5e-14 AS=1.75e-14 PD=5e-07 PS=5.5e-07 $X=2700 $Y=36250 $D=1
M118 43 B_9 402 GND! NMOS_VTL L=5e-08 W=1e-07 AD=1.5e-14 AS=1.75e-14 PD=5e-07 PS=5.5e-07 $X=2700 $Y=45150 $D=1
M119 37 B_8 403 GND! NMOS_VTL L=5e-08 W=1e-07 AD=1.5e-14 AS=1.75e-14 PD=5e-07 PS=5.5e-07 $X=2700 $Y=54050 $D=1
M120 44 B_7 404 GND! NMOS_VTL L=5e-08 W=1e-07 AD=1.5e-14 AS=1.75e-14 PD=5e-07 PS=5.5e-07 $X=2700 $Y=62950 $D=1
M121 38 B_6 405 GND! NMOS_VTL L=5e-08 W=1e-07 AD=1.5e-14 AS=1.75e-14 PD=5e-07 PS=5.5e-07 $X=2700 $Y=71850 $D=1
M122 45 B_5 406 GND! NMOS_VTL L=5e-08 W=1e-07 AD=1.5e-14 AS=1.75e-14 PD=5e-07 PS=5.5e-07 $X=2700 $Y=80750 $D=1
M123 39 B_4 407 GND! NMOS_VTL L=5e-08 W=1e-07 AD=1.5e-14 AS=1.75e-14 PD=5e-07 PS=5.5e-07 $X=2700 $Y=89650 $D=1
M124 46 B_3 408 GND! NMOS_VTL L=5e-08 W=1e-07 AD=1.5e-14 AS=1.75e-14 PD=5e-07 PS=5.5e-07 $X=2700 $Y=98550 $D=1
M125 40 B_2 409 GND! NMOS_VTL L=5e-08 W=1e-07 AD=1.5e-14 AS=1.75e-14 PD=5e-07 PS=5.5e-07 $X=2700 $Y=107450 $D=1
M126 47 B_1 410 GND! NMOS_VTL L=5e-08 W=1e-07 AD=1.5e-14 AS=1.75e-14 PD=5e-07 PS=5.5e-07 $X=2700 $Y=116350 $D=1
M127 55 B_0 411 GND! NMOS_VTL L=5e-08 W=1e-07 AD=1.5e-14 AS=1.75e-14 PD=5e-07 PS=5.5e-07 $X=2700 $Y=125250 $D=1
M128 412 34 GND! GND! NMOS_VTL L=5e-08 W=1e-07 AD=1.75e-14 AS=1.5e-14 PD=5.5e-07 PS=5e-07 $X=3700 $Y=650 $D=1
M129 176 152 GND! GND! NMOS_VTL L=5e-08 W=1e-07 AD=1.75e-14 AS=1.5e-14 PD=5.5e-07 PS=5e-07 $X=3700 $Y=5100 $D=1
M130 177 34 GND! GND! NMOS_VTL L=5e-08 W=1e-07 AD=1.5e-14 AS=1.5e-14 PD=5e-07 PS=5e-07 $X=3700 $Y=9550 $D=1
M131 178 48 GND! GND! NMOS_VTL L=5e-08 W=1e-07 AD=1.5e-14 AS=1.5e-14 PD=5e-07 PS=5e-07 $X=3700 $Y=14000 $D=1
M132 413 42 GND! GND! NMOS_VTL L=5e-08 W=1e-07 AD=1.75e-14 AS=1.5e-14 PD=5.5e-07 PS=5e-07 $X=3700 $Y=18450 $D=1
M133 179 153 GND! GND! NMOS_VTL L=5e-08 W=1e-07 AD=1.75e-14 AS=1.5e-14 PD=5.5e-07 PS=5e-07 $X=3700 $Y=22900 $D=1
M134 180 42 GND! GND! NMOS_VTL L=5e-08 W=1e-07 AD=1.5e-14 AS=1.5e-14 PD=5e-07 PS=5e-07 $X=3700 $Y=27350 $D=1
M135 181 49 GND! GND! NMOS_VTL L=5e-08 W=1e-07 AD=1.5e-14 AS=1.5e-14 PD=5e-07 PS=5e-07 $X=3700 $Y=31800 $D=1
M136 414 43 GND! GND! NMOS_VTL L=5e-08 W=1e-07 AD=1.75e-14 AS=1.5e-14 PD=5.5e-07 PS=5e-07 $X=3700 $Y=36250 $D=1
M137 182 154 GND! GND! NMOS_VTL L=5e-08 W=1e-07 AD=1.75e-14 AS=1.5e-14 PD=5.5e-07 PS=5e-07 $X=3700 $Y=40700 $D=1
M138 183 43 GND! GND! NMOS_VTL L=5e-08 W=1e-07 AD=1.5e-14 AS=1.5e-14 PD=5e-07 PS=5e-07 $X=3700 $Y=45150 $D=1
M139 184 50 GND! GND! NMOS_VTL L=5e-08 W=1e-07 AD=1.5e-14 AS=1.5e-14 PD=5e-07 PS=5e-07 $X=3700 $Y=49600 $D=1
M140 415 44 GND! GND! NMOS_VTL L=5e-08 W=1e-07 AD=1.75e-14 AS=1.5e-14 PD=5.5e-07 PS=5e-07 $X=3700 $Y=54050 $D=1
M141 185 155 GND! GND! NMOS_VTL L=5e-08 W=1e-07 AD=1.75e-14 AS=1.5e-14 PD=5.5e-07 PS=5e-07 $X=3700 $Y=58500 $D=1
M142 186 44 GND! GND! NMOS_VTL L=5e-08 W=1e-07 AD=1.5e-14 AS=1.5e-14 PD=5e-07 PS=5e-07 $X=3700 $Y=62950 $D=1
M143 187 51 GND! GND! NMOS_VTL L=5e-08 W=1e-07 AD=1.5e-14 AS=1.5e-14 PD=5e-07 PS=5e-07 $X=3700 $Y=67400 $D=1
M144 416 45 GND! GND! NMOS_VTL L=5e-08 W=1e-07 AD=1.75e-14 AS=1.5e-14 PD=5.5e-07 PS=5e-07 $X=3700 $Y=71850 $D=1
M145 188 156 GND! GND! NMOS_VTL L=5e-08 W=1e-07 AD=1.75e-14 AS=1.5e-14 PD=5.5e-07 PS=5e-07 $X=3700 $Y=76300 $D=1
M146 189 45 GND! GND! NMOS_VTL L=5e-08 W=1e-07 AD=1.5e-14 AS=1.5e-14 PD=5e-07 PS=5e-07 $X=3700 $Y=80750 $D=1
M147 190 52 GND! GND! NMOS_VTL L=5e-08 W=1e-07 AD=1.5e-14 AS=1.5e-14 PD=5e-07 PS=5e-07 $X=3700 $Y=85200 $D=1
M148 417 46 GND! GND! NMOS_VTL L=5e-08 W=1e-07 AD=1.75e-14 AS=1.5e-14 PD=5.5e-07 PS=5e-07 $X=3700 $Y=89650 $D=1
M149 191 157 GND! GND! NMOS_VTL L=5e-08 W=1e-07 AD=1.75e-14 AS=1.5e-14 PD=5.5e-07 PS=5e-07 $X=3700 $Y=94100 $D=1
M150 192 46 GND! GND! NMOS_VTL L=5e-08 W=1e-07 AD=1.5e-14 AS=1.5e-14 PD=5e-07 PS=5e-07 $X=3700 $Y=98550 $D=1
M151 193 53 GND! GND! NMOS_VTL L=5e-08 W=1e-07 AD=1.5e-14 AS=1.5e-14 PD=5e-07 PS=5e-07 $X=3700 $Y=103000 $D=1
M152 418 47 GND! GND! NMOS_VTL L=5e-08 W=1e-07 AD=1.75e-14 AS=1.5e-14 PD=5.5e-07 PS=5e-07 $X=3700 $Y=107450 $D=1
M153 194 158 GND! GND! NMOS_VTL L=5e-08 W=1e-07 AD=1.75e-14 AS=1.5e-14 PD=5.5e-07 PS=5e-07 $X=3700 $Y=111900 $D=1
M154 195 47 GND! GND! NMOS_VTL L=5e-08 W=1e-07 AD=1.5e-14 AS=1.5e-14 PD=5e-07 PS=5e-07 $X=3700 $Y=116350 $D=1
M155 196 54 GND! GND! NMOS_VTL L=5e-08 W=1e-07 AD=1.5e-14 AS=1.5e-14 PD=5e-07 PS=5e-07 $X=3700 $Y=120800 $D=1
M156 197 159 GND! GND! NMOS_VTL L=5e-08 W=1e-07 AD=1.75e-14 AS=1.5e-14 PD=5.5e-07 PS=5e-07 $X=3700 $Y=129700 $D=1
M157 198 33 412 GND! NMOS_VTL L=5e-08 W=1e-07 AD=1.5e-14 AS=1.75e-14 PD=5e-07 PS=5.5e-07 $X=4150 $Y=650 $D=1
M158 419 33 176 GND! NMOS_VTL L=5e-08 W=1e-07 AD=1.75e-14 AS=1.75e-14 PD=5.5e-07 PS=5.5e-07 $X=4150 $Y=5100 $D=1
M159 199 35 413 GND! NMOS_VTL L=5e-08 W=1e-07 AD=1.5e-14 AS=1.75e-14 PD=5e-07 PS=5.5e-07 $X=4150 $Y=18450 $D=1
M160 420 35 179 GND! NMOS_VTL L=5e-08 W=1e-07 AD=1.75e-14 AS=1.75e-14 PD=5.5e-07 PS=5.5e-07 $X=4150 $Y=22900 $D=1
M161 200 36 414 GND! NMOS_VTL L=5e-08 W=1e-07 AD=1.5e-14 AS=1.75e-14 PD=5e-07 PS=5.5e-07 $X=4150 $Y=36250 $D=1
M162 421 36 182 GND! NMOS_VTL L=5e-08 W=1e-07 AD=1.75e-14 AS=1.75e-14 PD=5.5e-07 PS=5.5e-07 $X=4150 $Y=40700 $D=1
M163 201 37 415 GND! NMOS_VTL L=5e-08 W=1e-07 AD=1.5e-14 AS=1.75e-14 PD=5e-07 PS=5.5e-07 $X=4150 $Y=54050 $D=1
M164 422 37 185 GND! NMOS_VTL L=5e-08 W=1e-07 AD=1.75e-14 AS=1.75e-14 PD=5.5e-07 PS=5.5e-07 $X=4150 $Y=58500 $D=1
M165 202 38 416 GND! NMOS_VTL L=5e-08 W=1e-07 AD=1.5e-14 AS=1.75e-14 PD=5e-07 PS=5.5e-07 $X=4150 $Y=71850 $D=1
M166 423 38 188 GND! NMOS_VTL L=5e-08 W=1e-07 AD=1.75e-14 AS=1.75e-14 PD=5.5e-07 PS=5.5e-07 $X=4150 $Y=76300 $D=1
M167 203 39 417 GND! NMOS_VTL L=5e-08 W=1e-07 AD=1.5e-14 AS=1.75e-14 PD=5e-07 PS=5.5e-07 $X=4150 $Y=89650 $D=1
M168 424 39 191 GND! NMOS_VTL L=5e-08 W=1e-07 AD=1.75e-14 AS=1.75e-14 PD=5.5e-07 PS=5.5e-07 $X=4150 $Y=94100 $D=1
M169 204 40 418 GND! NMOS_VTL L=5e-08 W=1e-07 AD=1.5e-14 AS=1.75e-14 PD=5e-07 PS=5.5e-07 $X=4150 $Y=107450 $D=1
M170 425 40 194 GND! NMOS_VTL L=5e-08 W=1e-07 AD=1.75e-14 AS=1.75e-14 PD=5.5e-07 PS=5.5e-07 $X=4150 $Y=111900 $D=1
M171 426 55 197 GND! NMOS_VTL L=5e-08 W=1e-07 AD=1.75e-14 AS=1.75e-14 PD=5.5e-07 PS=5.5e-07 $X=4150 $Y=129700 $D=1
M172 GND! 48 419 GND! NMOS_VTL L=5e-08 W=1e-07 AD=4e-14 AS=1.75e-14 PD=1e-06 PS=5.5e-07 $X=4600 $Y=5100 $D=1
M173 GND! 49 420 GND! NMOS_VTL L=5e-08 W=1e-07 AD=4e-14 AS=1.75e-14 PD=1e-06 PS=5.5e-07 $X=4600 $Y=22900 $D=1
M174 GND! 50 421 GND! NMOS_VTL L=5e-08 W=1e-07 AD=4e-14 AS=1.75e-14 PD=1e-06 PS=5.5e-07 $X=4600 $Y=40700 $D=1
M175 GND! 51 422 GND! NMOS_VTL L=5e-08 W=1e-07 AD=4e-14 AS=1.75e-14 PD=1e-06 PS=5.5e-07 $X=4600 $Y=58500 $D=1
M176 GND! 52 423 GND! NMOS_VTL L=5e-08 W=1e-07 AD=4e-14 AS=1.75e-14 PD=1e-06 PS=5.5e-07 $X=4600 $Y=76300 $D=1
M177 GND! 53 424 GND! NMOS_VTL L=5e-08 W=1e-07 AD=4e-14 AS=1.75e-14 PD=1e-06 PS=5.5e-07 $X=4600 $Y=94100 $D=1
M178 GND! 54 425 GND! NMOS_VTL L=5e-08 W=1e-07 AD=4e-14 AS=1.75e-14 PD=1e-06 PS=5.5e-07 $X=4600 $Y=111900 $D=1
M179 GND! GND! 426 GND! NMOS_VTL L=5e-08 W=1e-07 AD=4e-14 AS=1.75e-14 PD=1e-06 PS=5.5e-07 $X=4600 $Y=129700 $D=1
M180 57 177 GND! GND! NMOS_VTL L=5e-08 W=1e-07 AD=1.5e-14 AS=1.5e-14 PD=5e-07 PS=5e-07 $X=4700 $Y=9550 $D=1
M181 213 178 GND! GND! NMOS_VTL L=5e-08 W=1e-07 AD=1.5e-14 AS=1.5e-14 PD=5e-07 PS=5e-07 $X=4700 $Y=14000 $D=1
M182 58 180 GND! GND! NMOS_VTL L=5e-08 W=1e-07 AD=1.5e-14 AS=1.5e-14 PD=5e-07 PS=5e-07 $X=4700 $Y=27350 $D=1
M183 214 181 GND! GND! NMOS_VTL L=5e-08 W=1e-07 AD=1.5e-14 AS=1.5e-14 PD=5e-07 PS=5e-07 $X=4700 $Y=31800 $D=1
M184 59 183 GND! GND! NMOS_VTL L=5e-08 W=1e-07 AD=1.5e-14 AS=1.5e-14 PD=5e-07 PS=5e-07 $X=4700 $Y=45150 $D=1
M185 215 184 GND! GND! NMOS_VTL L=5e-08 W=1e-07 AD=1.5e-14 AS=1.5e-14 PD=5e-07 PS=5e-07 $X=4700 $Y=49600 $D=1
M186 60 186 GND! GND! NMOS_VTL L=5e-08 W=1e-07 AD=1.5e-14 AS=1.5e-14 PD=5e-07 PS=5e-07 $X=4700 $Y=62950 $D=1
M187 216 187 GND! GND! NMOS_VTL L=5e-08 W=1e-07 AD=1.5e-14 AS=1.5e-14 PD=5e-07 PS=5e-07 $X=4700 $Y=67400 $D=1
M188 61 189 GND! GND! NMOS_VTL L=5e-08 W=1e-07 AD=1.5e-14 AS=1.5e-14 PD=5e-07 PS=5e-07 $X=4700 $Y=80750 $D=1
M189 217 190 GND! GND! NMOS_VTL L=5e-08 W=1e-07 AD=1.5e-14 AS=1.5e-14 PD=5e-07 PS=5e-07 $X=4700 $Y=85200 $D=1
M190 62 192 GND! GND! NMOS_VTL L=5e-08 W=1e-07 AD=1.5e-14 AS=1.5e-14 PD=5e-07 PS=5e-07 $X=4700 $Y=98550 $D=1
M191 218 193 GND! GND! NMOS_VTL L=5e-08 W=1e-07 AD=1.5e-14 AS=1.5e-14 PD=5e-07 PS=5e-07 $X=4700 $Y=103000 $D=1
M192 63 195 GND! GND! NMOS_VTL L=5e-08 W=1e-07 AD=1.5e-14 AS=1.5e-14 PD=5e-07 PS=5e-07 $X=4700 $Y=116350 $D=1
M193 219 196 GND! GND! NMOS_VTL L=5e-08 W=1e-07 AD=1.5e-14 AS=1.5e-14 PD=5e-07 PS=5e-07 $X=4700 $Y=120800 $D=1
M194 64 198 GND! GND! NMOS_VTL L=5e-08 W=1e-07 AD=1.5e-14 AS=1.5e-14 PD=5e-07 PS=5e-07 $X=5150 $Y=650 $D=1
M195 65 199 GND! GND! NMOS_VTL L=5e-08 W=1e-07 AD=1.5e-14 AS=1.5e-14 PD=5e-07 PS=5e-07 $X=5150 $Y=18450 $D=1
M196 66 200 GND! GND! NMOS_VTL L=5e-08 W=1e-07 AD=1.5e-14 AS=1.5e-14 PD=5e-07 PS=5e-07 $X=5150 $Y=36250 $D=1
M197 67 201 GND! GND! NMOS_VTL L=5e-08 W=1e-07 AD=1.5e-14 AS=1.5e-14 PD=5e-07 PS=5e-07 $X=5150 $Y=54050 $D=1
M198 68 202 GND! GND! NMOS_VTL L=5e-08 W=1e-07 AD=1.5e-14 AS=1.5e-14 PD=5e-07 PS=5e-07 $X=5150 $Y=71850 $D=1
M199 69 203 GND! GND! NMOS_VTL L=5e-08 W=1e-07 AD=1.5e-14 AS=1.5e-14 PD=5e-07 PS=5e-07 $X=5150 $Y=89650 $D=1
M200 70 204 GND! GND! NMOS_VTL L=5e-08 W=1e-07 AD=1.5e-14 AS=1.5e-14 PD=5e-07 PS=5e-07 $X=5150 $Y=107450 $D=1
M201 220 176 GND! GND! NMOS_VTL L=5e-08 W=1e-07 AD=1.5e-14 AS=4e-14 PD=5e-07 PS=1e-06 $X=5500 $Y=5100 $D=1
M202 71 179 GND! GND! NMOS_VTL L=5e-08 W=1e-07 AD=1.5e-14 AS=4e-14 PD=5e-07 PS=1e-06 $X=5500 $Y=22900 $D=1
M203 72 182 GND! GND! NMOS_VTL L=5e-08 W=1e-07 AD=1.5e-14 AS=4e-14 PD=5e-07 PS=1e-06 $X=5500 $Y=40700 $D=1
M204 73 185 GND! GND! NMOS_VTL L=5e-08 W=1e-07 AD=1.5e-14 AS=4e-14 PD=5e-07 PS=1e-06 $X=5500 $Y=58500 $D=1
M205 74 188 GND! GND! NMOS_VTL L=5e-08 W=1e-07 AD=1.5e-14 AS=4e-14 PD=5e-07 PS=1e-06 $X=5500 $Y=76300 $D=1
M206 75 191 GND! GND! NMOS_VTL L=5e-08 W=1e-07 AD=1.5e-14 AS=4e-14 PD=5e-07 PS=1e-06 $X=5500 $Y=94100 $D=1
M207 76 194 GND! GND! NMOS_VTL L=5e-08 W=1e-07 AD=1.5e-14 AS=4e-14 PD=5e-07 PS=1e-06 $X=5500 $Y=111900 $D=1
M208 77 197 GND! GND! NMOS_VTL L=5e-08 W=1e-07 AD=1.5e-14 AS=4e-14 PD=5e-07 PS=1e-06 $X=5500 $Y=129700 $D=1
M209 427 65 GND! GND! NMOS_VTL L=5e-08 W=1e-07 AD=1.75e-14 AS=1.5e-14 PD=5.5e-07 PS=5e-07 $X=6500 $Y=650 $D=1
M210 221 220 GND! GND! NMOS_VTL L=5e-08 W=1e-07 AD=1.75e-14 AS=1.5e-14 PD=5.5e-07 PS=5e-07 $X=6500 $Y=5100 $D=1
M211 428 66 GND! GND! NMOS_VTL L=5e-08 W=1e-07 AD=1.75e-14 AS=1.5e-14 PD=5.5e-07 PS=5e-07 $X=6500 $Y=18450 $D=1
M212 222 71 GND! GND! NMOS_VTL L=5e-08 W=1e-07 AD=1.75e-14 AS=1.5e-14 PD=5.5e-07 PS=5e-07 $X=6500 $Y=22900 $D=1
M213 429 67 GND! GND! NMOS_VTL L=5e-08 W=1e-07 AD=1.75e-14 AS=1.5e-14 PD=5.5e-07 PS=5e-07 $X=6500 $Y=36250 $D=1
M214 223 72 GND! GND! NMOS_VTL L=5e-08 W=1e-07 AD=1.75e-14 AS=1.5e-14 PD=5.5e-07 PS=5e-07 $X=6500 $Y=40700 $D=1
M215 430 68 GND! GND! NMOS_VTL L=5e-08 W=1e-07 AD=1.75e-14 AS=1.5e-14 PD=5.5e-07 PS=5e-07 $X=6500 $Y=54050 $D=1
M216 224 73 GND! GND! NMOS_VTL L=5e-08 W=1e-07 AD=1.75e-14 AS=1.5e-14 PD=5.5e-07 PS=5e-07 $X=6500 $Y=58500 $D=1
M217 431 69 GND! GND! NMOS_VTL L=5e-08 W=1e-07 AD=1.75e-14 AS=1.5e-14 PD=5.5e-07 PS=5e-07 $X=6500 $Y=71850 $D=1
M218 225 74 GND! GND! NMOS_VTL L=5e-08 W=1e-07 AD=1.75e-14 AS=1.5e-14 PD=5.5e-07 PS=5e-07 $X=6500 $Y=76300 $D=1
M219 432 70 GND! GND! NMOS_VTL L=5e-08 W=1e-07 AD=1.75e-14 AS=1.5e-14 PD=5.5e-07 PS=5e-07 $X=6500 $Y=89650 $D=1
M220 226 75 GND! GND! NMOS_VTL L=5e-08 W=1e-07 AD=1.75e-14 AS=1.5e-14 PD=5.5e-07 PS=5e-07 $X=6500 $Y=94100 $D=1
M221 227 76 GND! GND! NMOS_VTL L=5e-08 W=1e-07 AD=1.75e-14 AS=1.5e-14 PD=5.5e-07 PS=5e-07 $X=6500 $Y=111900 $D=1
M222 228 55 GND! GND! NMOS_VTL L=5e-08 W=1e-07 AD=1.5e-14 AS=1.5e-14 PD=5e-07 PS=5e-07 $X=6500 $Y=125250 $D=1
M223 229 77 GND! GND! NMOS_VTL L=5e-08 W=1e-07 AD=1.5e-14 AS=1.5e-14 PD=5e-07 PS=5e-07 $X=6500 $Y=129700 $D=1
M224 230 64 427 GND! NMOS_VTL L=5e-08 W=1e-07 AD=1.5e-14 AS=1.75e-14 PD=5e-07 PS=5.5e-07 $X=6950 $Y=650 $D=1
M225 433 64 221 GND! NMOS_VTL L=5e-08 W=1e-07 AD=1.75e-14 AS=1.75e-14 PD=5.5e-07 PS=5.5e-07 $X=6950 $Y=5100 $D=1
M226 231 65 428 GND! NMOS_VTL L=5e-08 W=1e-07 AD=1.5e-14 AS=1.75e-14 PD=5e-07 PS=5.5e-07 $X=6950 $Y=18450 $D=1
M227 434 65 222 GND! NMOS_VTL L=5e-08 W=1e-07 AD=1.75e-14 AS=1.75e-14 PD=5.5e-07 PS=5.5e-07 $X=6950 $Y=22900 $D=1
M228 232 66 429 GND! NMOS_VTL L=5e-08 W=1e-07 AD=1.5e-14 AS=1.75e-14 PD=5e-07 PS=5.5e-07 $X=6950 $Y=36250 $D=1
M229 435 66 223 GND! NMOS_VTL L=5e-08 W=1e-07 AD=1.75e-14 AS=1.75e-14 PD=5.5e-07 PS=5.5e-07 $X=6950 $Y=40700 $D=1
M230 233 67 430 GND! NMOS_VTL L=5e-08 W=1e-07 AD=1.5e-14 AS=1.75e-14 PD=5e-07 PS=5.5e-07 $X=6950 $Y=54050 $D=1
M231 436 67 224 GND! NMOS_VTL L=5e-08 W=1e-07 AD=1.75e-14 AS=1.75e-14 PD=5.5e-07 PS=5.5e-07 $X=6950 $Y=58500 $D=1
M232 234 68 431 GND! NMOS_VTL L=5e-08 W=1e-07 AD=1.5e-14 AS=1.75e-14 PD=5e-07 PS=5.5e-07 $X=6950 $Y=71850 $D=1
M233 437 68 225 GND! NMOS_VTL L=5e-08 W=1e-07 AD=1.75e-14 AS=1.75e-14 PD=5.5e-07 PS=5.5e-07 $X=6950 $Y=76300 $D=1
M234 235 69 432 GND! NMOS_VTL L=5e-08 W=1e-07 AD=1.5e-14 AS=1.75e-14 PD=5e-07 PS=5.5e-07 $X=6950 $Y=89650 $D=1
M235 438 69 226 GND! NMOS_VTL L=5e-08 W=1e-07 AD=1.75e-14 AS=1.75e-14 PD=5.5e-07 PS=5.5e-07 $X=6950 $Y=94100 $D=1
M236 439 70 227 GND! NMOS_VTL L=5e-08 W=1e-07 AD=1.75e-14 AS=1.75e-14 PD=5.5e-07 PS=5.5e-07 $X=6950 $Y=111900 $D=1
M237 GND! 71 433 GND! NMOS_VTL L=5e-08 W=1e-07 AD=4e-14 AS=1.75e-14 PD=1e-06 PS=5.5e-07 $X=7400 $Y=5100 $D=1
M238 GND! 72 434 GND! NMOS_VTL L=5e-08 W=1e-07 AD=4e-14 AS=1.75e-14 PD=1e-06 PS=5.5e-07 $X=7400 $Y=22900 $D=1
M239 GND! 73 435 GND! NMOS_VTL L=5e-08 W=1e-07 AD=4e-14 AS=1.75e-14 PD=1e-06 PS=5.5e-07 $X=7400 $Y=40700 $D=1
M240 GND! 74 436 GND! NMOS_VTL L=5e-08 W=1e-07 AD=4e-14 AS=1.75e-14 PD=1e-06 PS=5.5e-07 $X=7400 $Y=58500 $D=1
M241 GND! 75 437 GND! NMOS_VTL L=5e-08 W=1e-07 AD=4e-14 AS=1.75e-14 PD=1e-06 PS=5.5e-07 $X=7400 $Y=76300 $D=1
M242 GND! 76 438 GND! NMOS_VTL L=5e-08 W=1e-07 AD=4e-14 AS=1.75e-14 PD=1e-06 PS=5.5e-07 $X=7400 $Y=94100 $D=1
M243 GND! 77 439 GND! NMOS_VTL L=5e-08 W=1e-07 AD=4e-14 AS=1.75e-14 PD=1e-06 PS=5.5e-07 $X=7400 $Y=111900 $D=1
M244 S_0 228 GND! GND! NMOS_VTL L=5e-08 W=1e-07 AD=1.5e-14 AS=1.5e-14 PD=5e-07 PS=5e-07 $X=7500 $Y=125250 $D=1
M245 89 229 GND! GND! NMOS_VTL L=5e-08 W=1e-07 AD=1.5e-14 AS=1.5e-14 PD=5e-07 PS=5e-07 $X=7500 $Y=129700 $D=1
M246 78 230 GND! GND! NMOS_VTL L=5e-08 W=1e-07 AD=1.5e-14 AS=1.5e-14 PD=5e-07 PS=5e-07 $X=7950 $Y=650 $D=1
M247 79 231 GND! GND! NMOS_VTL L=5e-08 W=1e-07 AD=1.5e-14 AS=1.5e-14 PD=5e-07 PS=5e-07 $X=7950 $Y=18450 $D=1
M248 80 232 GND! GND! NMOS_VTL L=5e-08 W=1e-07 AD=1.5e-14 AS=1.5e-14 PD=5e-07 PS=5e-07 $X=7950 $Y=36250 $D=1
M249 81 233 GND! GND! NMOS_VTL L=5e-08 W=1e-07 AD=1.5e-14 AS=1.5e-14 PD=5e-07 PS=5e-07 $X=7950 $Y=54050 $D=1
M250 82 234 GND! GND! NMOS_VTL L=5e-08 W=1e-07 AD=1.5e-14 AS=1.5e-14 PD=5e-07 PS=5e-07 $X=7950 $Y=71850 $D=1
M251 83 235 GND! GND! NMOS_VTL L=5e-08 W=1e-07 AD=1.5e-14 AS=1.5e-14 PD=5e-07 PS=5e-07 $X=7950 $Y=89650 $D=1
M252 244 221 GND! GND! NMOS_VTL L=5e-08 W=1e-07 AD=1.5e-14 AS=4e-14 PD=5e-07 PS=1e-06 $X=8300 $Y=5100 $D=1
M253 245 222 GND! GND! NMOS_VTL L=5e-08 W=1e-07 AD=1.5e-14 AS=4e-14 PD=5e-07 PS=1e-06 $X=8300 $Y=22900 $D=1
M254 87 223 GND! GND! NMOS_VTL L=5e-08 W=1e-07 AD=1.5e-14 AS=4e-14 PD=5e-07 PS=1e-06 $X=8300 $Y=40700 $D=1
M255 85 224 GND! GND! NMOS_VTL L=5e-08 W=1e-07 AD=1.5e-14 AS=4e-14 PD=5e-07 PS=1e-06 $X=8300 $Y=58500 $D=1
M256 84 225 GND! GND! NMOS_VTL L=5e-08 W=1e-07 AD=1.5e-14 AS=4e-14 PD=5e-07 PS=1e-06 $X=8300 $Y=76300 $D=1
M257 88 226 GND! GND! NMOS_VTL L=5e-08 W=1e-07 AD=1.5e-14 AS=4e-14 PD=5e-07 PS=1e-06 $X=8300 $Y=94100 $D=1
M258 86 227 GND! GND! NMOS_VTL L=5e-08 W=1e-07 AD=1.5e-14 AS=4e-14 PD=5e-07 PS=1e-06 $X=8300 $Y=111900 $D=1
M259 440 80 GND! GND! NMOS_VTL L=5e-08 W=1e-07 AD=1.75e-14 AS=1.5e-14 PD=5.5e-07 PS=5e-07 $X=9300 $Y=650 $D=1
M260 246 244 GND! GND! NMOS_VTL L=5e-08 W=1e-07 AD=1.75e-14 AS=1.5e-14 PD=5.5e-07 PS=5e-07 $X=9300 $Y=5100 $D=1
M261 441 81 GND! GND! NMOS_VTL L=5e-08 W=1e-07 AD=1.75e-14 AS=1.5e-14 PD=5.5e-07 PS=5e-07 $X=9300 $Y=18450 $D=1
M262 247 245 GND! GND! NMOS_VTL L=5e-08 W=1e-07 AD=1.75e-14 AS=1.5e-14 PD=5.5e-07 PS=5e-07 $X=9300 $Y=22900 $D=1
M263 442 82 GND! GND! NMOS_VTL L=5e-08 W=1e-07 AD=1.75e-14 AS=1.5e-14 PD=5.5e-07 PS=5e-07 $X=9300 $Y=36250 $D=1
M264 248 87 GND! GND! NMOS_VTL L=5e-08 W=1e-07 AD=1.75e-14 AS=1.5e-14 PD=5.5e-07 PS=5e-07 $X=9300 $Y=40700 $D=1
M265 443 83 GND! GND! NMOS_VTL L=5e-08 W=1e-07 AD=1.75e-14 AS=1.5e-14 PD=5.5e-07 PS=5e-07 $X=9300 $Y=54050 $D=1
M266 249 85 GND! GND! NMOS_VTL L=5e-08 W=1e-07 AD=1.75e-14 AS=1.5e-14 PD=5.5e-07 PS=5e-07 $X=9300 $Y=58500 $D=1