Version 4
SHEET 1 2996 680
WIRE 1776 -480 1232 -480
WIRE 2112 -480 1776 -480
WIRE 2672 -480 2112 -480
WIRE 1776 -464 1776 -480
WIRE 1600 -432 1472 -432
WIRE 1664 -432 1600 -432
WIRE 1664 -384 1664 -432
WIRE 1472 -368 1472 -432
WIRE 1504 -368 1472 -368
WIRE 2112 -304 2112 -480
WIRE 2672 -304 2672 -480
WIRE 448 -288 208 -288
WIRE 560 -288 448 -288
WIRE 1168 -288 1056 -288
WIRE 1232 -288 1232 -480
WIRE 1232 -288 1168 -288
WIRE 2064 -288 1984 -288
WIRE 2800 -288 2720 -288
WIRE 448 -272 448 -288
WIRE 1232 -256 1232 -288
WIRE 560 -224 560 -288
WIRE 1056 -192 1056 -288
WIRE 1472 -192 1472 -368
WIRE 1504 -192 1504 -288
WIRE 448 -176 448 -208
WIRE 1024 -176 880 -176
WIRE 1232 -160 1232 -176
WIRE 1232 -160 1088 -160
WIRE 1456 -160 1232 -160
WIRE 1984 -160 1984 -288
WIRE 1984 -160 1520 -160
WIRE 1024 -144 960 -144
WIRE 448 -96 448 -112
WIRE 496 -96 448 -96
WIRE 2112 -96 2112 -208
WIRE 2176 -96 2112 -96
WIRE 2320 -96 2256 -96
WIRE 2352 -96 2320 -96
WIRE 2480 -96 2432 -96
WIRE 2528 -96 2480 -96
WIRE 2672 -96 2672 -208
WIRE 2672 -96 2608 -96
WIRE 2800 -96 2800 -288
WIRE 2992 -96 2800 -96
WIRE 1504 -80 1472 -80
WIRE 1600 -80 1600 -432
WIRE 1600 -80 1504 -80
WIRE 1168 -64 1168 -288
WIRE 1232 -64 1168 -64
WIRE 2480 -64 2480 -96
WIRE 448 -48 448 -96
WIRE 880 -48 880 -176
WIRE 880 -48 560 -48
WIRE 1168 -48 1168 -64
WIRE 1168 -48 1056 -48
WIRE 2320 -48 2320 -96
WIRE 208 0 208 -288
WIRE 208 0 0 0
WIRE 1056 0 1056 -48
WIRE 1472 0 1472 -80
WIRE 2112 0 2112 -96
WIRE 2672 0 2672 -96
WIRE 960 16 960 -144
WIRE 1024 16 960 16
WIRE 2480 16 2480 0
WIRE 1232 32 1232 16
WIRE 1232 32 1088 32
WIRE 1456 32 1232 32
WIRE 1808 32 1520 32
WIRE 880 48 880 -48
WIRE 1024 48 880 48
WIRE 208 80 208 0
WIRE 208 80 192 80
WIRE 224 80 208 80
WIRE 1984 80 1984 -160
WIRE 2064 80 1984 80
WIRE 2800 80 2800 -96
WIRE 2800 80 2720 80
WIRE 0 112 0 0
WIRE 192 112 192 80
WIRE 224 112 224 80
WIRE 304 160 288 160
WIRE 560 160 560 -48
WIRE 560 160 304 160
WIRE 960 160 960 16
WIRE 960 160 880 160
WIRE 560 176 560 160
WIRE 304 192 304 160
WIRE 304 192 288 192
WIRE 1808 192 1808 32
WIRE 2992 192 2992 -96
WIRE 2992 192 1808 192
WIRE 304 224 304 192
WIRE 304 224 288 224
WIRE 192 304 192 272
FLAG 192 304 0
FLAG 224 336 0
FLAG 0 192 0
FLAG 448 32 0
FLAG 560 240 0
FLAG 1056 -128 0
FLAG 1056 64 0
FLAG 880 240 0
FLAG 2112 96 0
FLAG 1776 -384 0
FLAG 2320 16 0
FLAG 2480 16 0
FLAG 2672 96 0
FLAG 1488 -128 0
FLAG 1488 64 0
FLAG 1664 -304 0
FLAG 560 -144 a
FLAG 448 -96 b
SYMBOL NE555 144 192 R0
SYMATTR InstName U1
SYMBOL cap 208 272 R0
SYMATTR InstName C1
SYMATTR Value 10nf
SYMBOL voltage 0 96 R0
SYMATTR InstName V1
SYMATTR Value 5
SYMBOL pnp 496 -48 M180
SYMATTR InstName Q1
SYMBOL res 432 -64 R0
SYMATTR InstName R1
SYMATTR Value 1k
SYMBOL res 544 -240 R0
SYMATTR InstName R3
SYMATTR Value 560
SYMBOL cap 544 176 R0
SYMATTR InstName C2
SYMATTR Value 1n
SYMBOL voltage 880 144 R0
WINDOW 123 0 0 Left 2
WINDOW 39 0 0 Left 2
SYMATTR InstName V2
SYMATTR Value SINE(1.8 1.25 1000)
SYMBOL res 1216 -272 R0
SYMATTR InstName R4
SYMATTR Value 3k
SYMBOL res 1216 -80 R0
SYMATTR InstName 1k
SYMATTR Value 3k
SYMBOL pmos 2064 -208 M180
SYMATTR InstName M2
SYMATTR Value FDS4559_P
SYMBOL nmos 2064 0 R0
SYMATTR InstName M1
SYMATTR Value FDS3812
SYMBOL voltage 1776 -480 R0
SYMATTR InstName V3
SYMATTR Value 12
SYMBOL ind 2272 -112 R90
WINDOW 0 5 56 VBottom 2
WINDOW 3 32 56 VTop 2
SYMATTR InstName L1
SYMATTR Value 47µ
SYMATTR SpiceLine Rser=1.11
SYMBOL cap 2304 -48 R0
SYMATTR InstName C3
SYMATTR Value 1.36µ
SYMATTR SpiceLine Rser=0.01
SYMBOL ind 2624 -112 R90
WINDOW 0 5 56 VBottom 2
WINDOW 3 32 56 VTop 2
SYMATTR InstName L2
SYMATTR Value 47µ
SYMATTR SpiceLine Rser=1.11
SYMBOL res 2448 -112 R90
WINDOW 0 0 56 VBottom 2
WINDOW 3 32 56 VTop 2
SYMATTR InstName R6
SYMATTR Value 8
SYMBOL cap 2464 -64 R0
SYMATTR InstName C4
SYMATTR Value 1.36µ
SYMATTR SpiceLine Rser=0.01
SYMBOL pmos 2720 -208 R180
SYMATTR InstName M3
SYMATTR Value FDS4559_P
SYMBOL nmos 2720 0 M0
SYMATTR InstName M4
SYMATTR Value FDS3812
SYMBOL Opamps\\LT1010 1488 -224 R0
SYMATTR InstName U2
SYMBOL Opamps\\LT1010 1488 -32 R0
SYMATTR InstName U3
SYMBOL Opamps\\opamp2 1056 -224 R0
SYMATTR InstName U4
SYMATTR Value LM393
SYMBOL Opamps\\opamp2 1056 -32 R0
SYMATTR InstName U5
SYMATTR Value LM393
SYMBOL res 1488 -384 R0
SYMATTR InstName R7
SYMATTR Value 1
SYMBOL res 1488 -96 R0
SYMATTR InstName R8
SYMATTR Value 1
SYMBOL voltage 1664 -400 R0
SYMATTR InstName V4
SYMATTR Value 13
SYMBOL diode 432 -176 R0
SYMATTR InstName D1
SYMBOL diode 432 -272 R0
SYMATTR InstName D2
TEXT -32 360 Left 2 !.tran 0 1m 0u
TEXT 1176 136 Left 2 !.lib LM393.sub
